*
* Deltares, Delft3D-RGFGRID Version 4.17.00.5337, Nov 18 2008, 13:53:33
* File creation date: 2008-11-20, 21:06:20
*
Coordinate System = Cartesian
      14      21
 0 0 0
 ETA=    1   0.00000000000000000E+00   0.00000000000000000E+00   0.00000000000000000E+00   0.00000000000000000E+00   0.00000000000000000E+00
             0.00000000000000000E+00   0.00000000000000000E+00   0.00000000000000000E+00   0.00000000000000000E+00   0.00000000000000000E+00
             0.00000000000000000E+00   2.13813187999999995E+05   2.14686000000000000E+05   2.14891687999999995E+05
 ETA=    2   0.00000000000000000E+00   0.00000000000000000E+00   0.00000000000000000E+00   0.00000000000000000E+00   0.00000000000000000E+00
             0.00000000000000000E+00   0.00000000000000000E+00   0.00000000000000000E+00   0.00000000000000000E+00   0.00000000000000000E+00
             2.10330828000000009E+05   2.11797953000000009E+05   2.12459953000000009E+05   2.12436891000000003E+05
 ETA=    3   1.85535358999999997E+05   1.86353016000000003E+05   1.87959233999999997E+05   1.90193030999999988E+05   0.00000000000000000E+00
             0.00000000000000000E+00   0.00000000000000000E+00   0.00000000000000000E+00   0.00000000000000000E+00   0.00000000000000000E+00
             2.08578703000000009E+05   2.09800062000000005E+05   2.10311500000000000E+05   2.10230016000000003E+05
 ETA=    4   1.87291078000000009E+05   1.87995905999999988E+05   1.89371155999999988E+05   1.91294562000000005E+05   1.93560671999999991E+05
             0.00000000000000000E+00   0.00000000000000000E+00   0.00000000000000000E+00   0.00000000000000000E+00   2.05349453000000009E+05
             2.06993328000000009E+05   2.08046655999999988E+05   2.08479405999999988E+05   2.08406296999999991E+05
 ETA=    5   1.88800296999999991E+05   1.89401905999999988E+05   1.90582562000000005E+05   1.92238844000000012E+05   1.94195016000000003E+05
             1.96239187999999995E+05   0.00000000000000000E+00   0.00000000000000000E+00   2.02400530999999988E+05   2.04195500000000000E+05
             2.05653108999999997E+05   2.06586858999999997E+05   2.06986344000000012E+05   2.06943250000000000E+05
 ETA=    6   1.90103078000000009E+05   1.90612641000000003E+05   1.91622500000000000E+05   1.93045828000000009E+05   1.94717421999999991E+05
             1.96462891000000003E+05   1.98210358999999997E+05   1.99978594000000012E+05   2.01671891000000003E+05   2.03225641000000003E+05
             2.04510969000000012E+05   2.05360641000000003E+05   2.05752141000000003E+05   2.05751296999999991E+05
 ETA=    7   1.91192844000000012E+05   1.91635500000000000E+05   1.92508733999999997E+05   1.93732094000000012E+05   1.95155312000000005E+05
             1.96637280999999988E+05   1.98109858999999997E+05   1.99598905999999988E+05   2.01035594000000012E+05   2.02380391000000003E+05
             2.03520125000000000E+05   2.04310983999999997E+05   2.04717687999999995E+05   2.04789921999999991E+05
 ETA=    8   1.92051875000000000E+05   1.92477000000000000E+05   1.93251391000000003E+05   1.94303671999999991E+05   1.95510250000000000E+05
             1.96761046999999991E+05   1.97999125000000000E+05   1.99249641000000003E+05   2.00465171999999991E+05   2.01626016000000003E+05
             2.02641578000000009E+05   2.03395266000000003E+05   2.03846750000000000E+05   2.04040891000000003E+05
 ETA=    9   1.92609453000000009E+05   1.93074953000000009E+05   1.93792796999999991E+05   1.94713483999999997E+05   1.95747905999999988E+05
             1.96813108999999997E+05   1.97865233999999997E+05   1.98927155999999988E+05   1.99966921999999991E+05   2.00979391000000003E+05
             2.01896921999999991E+05   2.02629719000000012E+05   2.03140000000000000E+05   2.03467891000000003E+05
 ETA=   10   1.92882719000000012E+05   1.93396483999999997E+05   1.94077141000000003E+05   1.94904812000000005E+05   1.95820687999999995E+05
             1.96761016000000003E+05   1.97691594000000012E+05   1.98633062000000005E+05   1.99561750000000000E+05   2.00480016000000003E+05
             2.01337391000000003E+05   2.02061437999999995E+05   2.02615203000000009E+05   2.03026405999999988E+05
 ETA=   11   1.92927391000000003E+05   1.93429844000000012E+05   1.94073141000000003E+05   1.94847094000000012E+05   1.95705891000000003E+05
             1.96593812000000005E+05   1.97479562000000005E+05   1.98382108999999997E+05   1.99279766000000003E+05   2.00176469000000012E+05
             2.01027655999999988E+05   2.01765328000000009E+05   2.02350062000000005E+05   2.02805530999999988E+05
 ETA=   12   1.92731844000000012E+05   1.93174421999999991E+05   1.93780594000000012E+05   1.94540203000000009E+05   1.95402141000000003E+05
             1.96307921999999991E+05   1.97222391000000003E+05   1.98163921999999991E+05   1.99109375000000000E+05   2.00061250000000000E+05
             2.00967594000000012E+05   2.01752125000000000E+05   2.02366016000000003E+05   2.02836469000000012E+05
 ETA=   13   1.92344500000000000E+05   1.92658983999999997E+05   1.93214937999999995E+05   1.93986094000000012E+05   1.94902141000000003E+05
             1.95891546999999991E+05   1.96907969000000012E+05   1.97969969000000012E+05   1.99047703000000009E+05   2.00136141000000003E+05
             2.01162000000000000E+05   2.02026671999999991E+05   2.02667296999999991E+05   2.03118219000000012E+05
 ETA=   14   1.91753516000000003E+05   1.91920969000000012E+05   1.92423578000000009E+05   1.93228828000000009E+05   1.94243546999999991E+05
             1.95374203000000009E+05   1.96556375000000000E+05   1.97809796999999991E+05   1.99091296999999991E+05   2.00379875000000000E+05
             2.01573312000000005E+05   2.02540516000000003E+05   2.03204219000000012E+05   2.03594608999999997E+05
 ETA=   15   1.90911594000000012E+05   1.90962155999999988E+05   1.91442000000000000E+05   1.92317155999999988E+05   1.93472905999999988E+05
             1.94791125000000000E+05   1.96186608999999997E+05   1.97683562000000005E+05   1.99218891000000003E+05   2.00749483999999997E+05
             2.02144233999999997E+05   2.03239671999999991E+05   2.03953655999999988E+05   2.04320125000000000E+05
 ETA=   16   1.89820891000000003E+05   1.89817891000000003E+05   1.90315719000000012E+05   1.91291000000000000E+05   1.92616312000000005E+05
             1.94154983999999997E+05   1.95801421999999991E+05   1.97584858999999997E+05   1.99414562000000005E+05   2.01218062000000005E+05
             2.02837719000000012E+05   2.04086453000000009E+05   2.04885094000000012E+05   2.05281094000000012E+05
 ETA=   17   1.88507141000000003E+05   1.88473780999999988E+05   1.89021328000000009E+05   1.90126344000000012E+05   1.91651296999999991E+05
             1.93446469000000012E+05   1.95386187999999995E+05   1.97505233999999997E+05   1.99678375000000000E+05   2.01795141000000003E+05
             2.03670858999999997E+05   2.05104375000000000E+05   2.06018905999999988E+05   2.06476266000000003E+05
 ETA=   18   1.86966280999999988E+05   1.86912483999999997E+05   1.87529594000000012E+05   1.88792405999999988E+05   1.90552578000000009E+05
             1.92647812000000005E+05   1.94929219000000012E+05   1.97437219000000012E+05   2.00009625000000000E+05   2.02494250000000000E+05
             2.04674828000000009E+05   2.06340421999999991E+05   2.07409296999999991E+05   2.07948937999999995E+05
 ETA=   19   1.85165078000000009E+05   1.85107703000000009E+05   1.85824046999999991E+05   1.87281641000000003E+05   1.89319030999999988E+05
             1.91759844000000012E+05   1.94428844000000012E+05   1.97373469000000012E+05   2.00397750000000000E+05   2.03311141000000003E+05
             2.05861641000000003E+05   2.07828296999999991E+05   2.09116233999999997E+05   2.09780094000000012E+05
 ETA=   20   1.83128312000000005E+05   1.83113375000000000E+05   1.83972421999999991E+05   1.85658358999999997E+05   1.88002125000000000E+05
             1.90817562000000005E+05   1.93903171999999991E+05   1.97308500000000000E+05   2.00811780999999988E+05   2.04193203000000009E+05
             2.07166858999999997E+05   2.09500500000000000E+05   2.11093312000000005E+05   2.11977687999999995E+05
 ETA=   21   1.80919219000000012E+05   1.81045687999999995E+05   1.82086641000000003E+05   1.84012655999999988E+05   1.86666030999999988E+05
             1.89865530999999988E+05   1.93375358999999997E+05   1.97241578000000009E+05   2.01220641000000003E+05   2.05072391000000003E+05
             2.08479578000000009E+05   2.11188891000000003E+05   2.13123125000000000E+05   2.14422391000000003E+05
 ETA=    1   0.00000000000000000E+00   0.00000000000000000E+00   0.00000000000000000E+00   0.00000000000000000E+00   0.00000000000000000E+00
             0.00000000000000000E+00   0.00000000000000000E+00   0.00000000000000000E+00   0.00000000000000000E+00   0.00000000000000000E+00
             0.00000000000000000E+00   6.03732062000000034E+05   6.07226062000000034E+05   6.10751250000000000E+05
 ETA=    2   0.00000000000000000E+00   0.00000000000000000E+00   0.00000000000000000E+00   0.00000000000000000E+00   0.00000000000000000E+00
             0.00000000000000000E+00   0.00000000000000000E+00   0.00000000000000000E+00   0.00000000000000000E+00   0.00000000000000000E+00
             6.01424062000000034E+05   6.04444750000000000E+05   6.07475687999999966E+05   6.10362500000000000E+05
 ETA=    3   6.06607937999999966E+05   6.03789437999999966E+05   6.01197562000000034E+05   5.99101500000000000E+05   0.00000000000000000E+00
             0.00000000000000000E+00   0.00000000000000000E+00   0.00000000000000000E+00   0.00000000000000000E+00   0.00000000000000000E+00
             6.02513687999999966E+05   6.05100312000000034E+05   6.07640687999999966E+05   6.10012937999999966E+05
 ETA=    4   6.06886000000000000E+05   6.04532125000000000E+05   6.02365750000000000E+05   6.00601375000000000E+05   5.99355625000000000E+05
             0.00000000000000000E+00   0.00000000000000000E+00   0.00000000000000000E+00   0.00000000000000000E+00   6.01492750000000000E+05
             6.03480062000000034E+05   6.05663562000000034E+05   6.07765687999999966E+05   6.09724125000000000E+05
 ETA=    5   6.07125062000000034E+05   6.05185750000000000E+05   6.03404625000000000E+05   6.01955187999999966E+05   6.00941312000000034E+05
             6.00407000000000000E+05   0.00000000000000000E+00   0.00000000000000000E+00   6.01451125000000000E+05   6.02704375000000000E+05
             6.04362500000000000E+05   6.06162437999999966E+05   6.07885375000000000E+05   6.09492375000000000E+05
 ETA=    6   6.07331437999999966E+05   6.05773187999999966E+05   6.04348500000000000E+05   6.03192062000000034E+05   6.02398375000000000E+05
             6.01989625000000000E+05   6.01928875000000000E+05   6.02213500000000000E+05   6.02853375000000000E+05   6.03855937999999966E+05
             6.05182750000000000E+05   6.06635562000000034E+05   6.08020187999999966E+05   6.09303625000000000E+05
 ETA=    7   6.07504312000000034E+05   6.06313937999999966E+05   6.05233937999999966E+05   6.04361750000000000E+05   6.03775562000000034E+05
             6.03485125000000000E+05   6.03459312000000034E+05   6.03691125000000000E+05   6.04188000000000000E+05   6.04963937999999966E+05
             6.05990375000000000E+05   6.07121812000000034E+05   6.08191000000000000E+05   6.09151125000000000E+05
 ETA=    8   6.07638250000000000E+05   6.06854250000000000E+05   6.06121375000000000E+05   6.05530937999999966E+05   6.05144437999999966E+05
             6.04966562000000034E+05   6.04974812000000034E+05   6.05163187999999966E+05   6.05536250000000000E+05   6.06107125000000000E+05
             6.06855375000000000E+05   6.07680750000000000E+05   6.08452500000000000E+05   6.09110687999999966E+05
 ETA=    9   6.07891937999999966E+05   6.07451062000000034E+05   6.07038437999999966E+05   6.06715625000000000E+05   6.06520375000000000E+05
             6.06454000000000000E+05   6.06502062000000034E+05   6.06660750000000000E+05   6.06931375000000000E+05   6.07324187999999966E+05
             6.07825625000000000E+05   6.08374187999999966E+05   6.08888125000000000E+05   6.09333562000000034E+05
 ETA=   10   6.08301062000000034E+05   6.08137875000000000E+05   6.08001312000000034E+05   6.07916687999999966E+05   6.07897562000000034E+05
             6.07940187999999966E+05   6.08034750000000000E+05   6.08180562000000034E+05   6.08375625000000000E+05   6.08625937999999966E+05
             6.08922875000000000E+05   6.09235000000000000E+05   6.09524187999999966E+05   6.09777062000000034E+05
 ETA=   11   6.08792000000000000E+05   6.08870625000000000E+05   6.08968937999999966E+05   6.09088625000000000E+05   6.09223250000000000E+05
             6.09363937999999966E+05   6.09504812000000034E+05   6.09648375000000000E+05   6.09791000000000000E+05   6.09933562000000034E+05
             6.10069125000000000E+05   6.10187125000000000E+05   6.10281187999999966E+05   6.10354187999999966E+05
 ETA=   12   6.09245562000000034E+05   6.09559625000000000E+05   6.09891500000000000E+05   6.10220812000000034E+05   6.10518625000000000E+05
             6.10768750000000000E+05   6.10968062000000034E+05   6.11122437999999966E+05   6.11225562000000034E+05   6.11272312000000034E+05
             6.11256375000000000E+05   6.11185500000000000E+05   6.11084875000000000E+05   6.10973312000000034E+05
 ETA=   13   6.09549125000000000E+05   6.10115937999999966E+05   6.10719125000000000E+05   6.11301687999999966E+05   6.11802687999999966E+05
             6.12196187999999966E+05   6.12478937999999966E+05   6.12659312000000034E+05   6.12725375000000000E+05   6.12664750000000000E+05
             6.12472062000000034E+05   6.12179250000000000E+05   6.11852875000000000E+05   6.11531375000000000E+05
 ETA=   14   6.09621000000000000E+05   6.10494750000000000E+05   6.11414500000000000E+05   6.12291750000000000E+05   6.13029437999999966E+05
             6.13589750000000000E+05   6.13970062000000034E+05   6.14182187999999966E+05   6.14205062000000034E+05   6.14019000000000000E+05
             6.13621625000000000E+05   6.13073625000000000E+05   6.12485250000000000E+05   6.11920125000000000E+05
 ETA=   15   6.09483500000000000E+05   6.10740875000000000E+05   6.12017125000000000E+05   6.13215312000000034E+05   6.14210062000000034E+05
             6.14951875000000000E+05   6.15437875000000000E+05   6.15683312000000034E+05   6.15656312000000034E+05   6.15331062000000034E+05
             6.14711750000000000E+05   6.13888812000000034E+05   6.13004937999999966E+05   6.12114875000000000E+05
 ETA=   16   6.09311750000000000E+05   6.10925375000000000E+05   6.12572625000000000E+05   6.14105937999999966E+05   6.15375687999999966E+05
             6.16316687999999966E+05   6.16920312000000034E+05   6.17201687999999966E+05   6.17116000000000000E+05   6.16636812000000034E+05
             6.15782687999999966E+05   6.14677187999999966E+05   6.13487687999999966E+05   6.12266437999999966E+05
 ETA=   17   6.09103500000000000E+05   6.11091625000000000E+05   6.13134812000000034E+05   6.15024250000000000E+05   6.16590062000000034E+05
             6.17751875000000000E+05   6.18489625000000000E+05   6.18814812000000034E+05   6.18665875000000000E+05   6.18018750000000000E+05
             6.16915250000000000E+05   6.15511250000000000E+05   6.14000187999999966E+05   6.12455812000000034E+05
 ETA=   18   6.08859562000000034E+05   6.11259062000000034E+05   6.13735562000000034E+05   6.16014875000000000E+05   6.17903812000000034E+05
             6.19308375000000000E+05   6.20195687999999966E+05   6.20574250000000000E+05   6.20364687999999966E+05   6.19544875000000000E+05
             6.18179187999999966E+05   6.16451375000000000E+05   6.14583375000000000E+05   6.12689062000000034E+05
 ETA=   19   6.08574187999999966E+05   6.11439750000000000E+05   6.14393125000000000E+05   6.17097750000000000E+05   6.19335687999999966E+05
             6.21000750000000000E+05   6.22051812000000034E+05   6.22495562000000034E+05   6.22237250000000000E+05   6.21252437999999966E+05
             6.19621562000000034E+05   6.17547312000000034E+05   6.15277562000000034E+05   6.12979125000000000E+05
 ETA=   20   6.08251687999999966E+05   6.11648562000000034E+05   6.15100000000000000E+05   6.18243625000000000E+05   6.20843500000000000E+05
             6.22776312000000034E+05   6.23998562000000034E+05   6.24514125000000000E+05   6.24220062000000034E+05   6.23090687999999966E+05
             6.21210312000000034E+05   6.18793312000000034E+05   6.16102937999999966E+05   6.13327062000000034E+05
 ETA=   21   6.07901750000000000E+05   6.11907000000000000E+05   6.15833562000000034E+05   6.19399312000000034E+05   6.22361750000000000E+05
             6.24559250000000000E+05   6.25953000000000000E+05   6.26539187999999966E+05   6.26215812000000034E+05   6.24958750000000000E+05
             6.22843312000000034E+05   6.20106062000000034E+05   6.17034500000000000E+05   6.13714437999999966E+05
