*
* WL | Delft Hydraulics, Delft3D-RGFGRID Version 4.12.02.20; Apr 2005
* File creation date: 18:05:11, 11-05-2005
*
Coordinate System = Cartesian
      99      73
 0 0 0
 ETA=    1  0.000000000000000000E+00  0.000000000000000000E+00  0.000000000000000000E+00  0.000000000000000000E+00  0.000000000000000000E+00
            0.000000000000000000E+00  0.000000000000000000E+00  0.000000000000000000E+00  0.000000000000000000E+00  0.000000000000000000E+00
            0.000000000000000000E+00  0.000000000000000000E+00  0.000000000000000000E+00  0.000000000000000000E+00  0.000000000000000000E+00
            0.000000000000000000E+00  0.000000000000000000E+00  0.000000000000000000E+00  0.000000000000000000E+00  0.000000000000000000E+00
            0.000000000000000000E+00  0.000000000000000000E+00  0.000000000000000000E+00  0.000000000000000000E+00  0.000000000000000000E+00
            0.000000000000000000E+00  0.000000000000000000E+00  0.000000000000000000E+00  0.000000000000000000E+00  0.000000000000000000E+00
            0.000000000000000000E+00  0.000000000000000000E+00  0.000000000000000000E+00  0.000000000000000000E+00  0.000000000000000000E+00
            0.000000000000000000E+00  0.000000000000000000E+00  0.000000000000000000E+00  0.000000000000000000E+00  0.000000000000000000E+00
            0.000000000000000000E+00  0.000000000000000000E+00  0.000000000000000000E+00  0.808832125000000000E+06  0.808657125000000000E+06
            0.808434812500000000E+06  0.808184187500000000E+06  0.807952437500000000E+06  0.807683687500000000E+06  0.807538125000000000E+06
            0.807343750000000000E+06  0.807203812500000000E+06  0.807064625000000000E+06  0.806941125000000000E+06  0.806815562500000000E+06
            0.806687312500000000E+06  0.806558125000000000E+06  0.806429250000000000E+06  0.806284687500000000E+06  0.806127312500000000E+06
            0.805922937500000000E+06  0.805698875000000000E+06  0.805451500000000000E+06  0.805177687500000000E+06  0.804878750000000000E+06
            0.804558187500000000E+06  0.804228437500000000E+06  0.803890875000000000E+06  0.803554562500000000E+06  0.803228937500000000E+06
            0.802925750000000000E+06  0.802633562500000000E+06  0.802367812500000000E+06  0.802126437500000000E+06  0.801913187500000000E+06
            0.801728250000000000E+06  0.801568750000000000E+06  0.801444000000000000E+06  0.801350625000000000E+06  0.801287687500000000E+06
            0.801248250000000000E+06  0.801231750000000000E+06  0.801237562500000000E+06  0.801265437500000000E+06  0.801314062500000000E+06
            0.801383812500000000E+06  0.801472937500000000E+06  0.801571937500000000E+06  0.801678000000000000E+06  0.801787062500000000E+06
            0.801923250000000000E+06  0.802081687500000000E+06  0.802266937500000000E+06  0.802466750000000000E+06  0.802670562500000000E+06
            0.803060062500000000E+06  0.000000000000000000E+00  0.000000000000000000E+00  0.000000000000000000E+00
 ETA=    2  0.000000000000000000E+00  0.000000000000000000E+00  0.000000000000000000E+00  0.000000000000000000E+00  0.000000000000000000E+00
            0.000000000000000000E+00  0.000000000000000000E+00  0.000000000000000000E+00  0.000000000000000000E+00  0.000000000000000000E+00
            0.000000000000000000E+00  0.000000000000000000E+00  0.000000000000000000E+00  0.000000000000000000E+00  0.000000000000000000E+00
            0.000000000000000000E+00  0.000000000000000000E+00  0.000000000000000000E+00  0.000000000000000000E+00  0.000000000000000000E+00
            0.000000000000000000E+00  0.000000000000000000E+00  0.000000000000000000E+00  0.000000000000000000E+00  0.000000000000000000E+00
            0.000000000000000000E+00  0.000000000000000000E+00  0.000000000000000000E+00  0.000000000000000000E+00  0.000000000000000000E+00
            0.000000000000000000E+00  0.000000000000000000E+00  0.000000000000000000E+00  0.000000000000000000E+00  0.000000000000000000E+00
            0.000000000000000000E+00  0.000000000000000000E+00  0.000000000000000000E+00  0.000000000000000000E+00  0.000000000000000000E+00
            0.000000000000000000E+00  0.000000000000000000E+00  0.809030750000000000E+06  0.808950312500000000E+06  0.808737500000000000E+06
            0.808544312500000000E+06  0.808320187500000000E+06  0.808085937500000000E+06  0.807885687500000000E+06  0.807695312500000000E+06
            0.807534187500000000E+06  0.807392687500000000E+06  0.807265062500000000E+06  0.807143812500000000E+06  0.807025875000000000E+06
            0.806909000000000000E+06  0.806788187500000000E+06  0.806663375000000000E+06  0.806521437500000000E+06  0.806360187500000000E+06
            0.806168687500000000E+06  0.805956250000000000E+06  0.805722062500000000E+06  0.805467000000000000E+06  0.805192625000000000E+06
            0.804908125000000000E+06  0.804609187500000000E+06  0.804309062500000000E+06  0.804010625000000000E+06  0.803722187500000000E+06
            0.803446875000000000E+06  0.803186062500000000E+06  0.802948875000000000E+06  0.802730687500000000E+06  0.802536187500000000E+06
            0.802364250000000000E+06  0.802219687500000000E+06  0.802103000000000000E+06  0.802015125000000000E+06  0.801954375000000000E+06
            0.801916187500000000E+06  0.801901187500000000E+06  0.801908500000000000E+06  0.801938375000000000E+06  0.801991062500000000E+06
            0.802065750000000000E+06  0.802161562500000000E+06  0.802272500000000000E+06  0.802392187500000000E+06  0.802518812500000000E+06
            0.802667000000000000E+06  0.802850375000000000E+06  0.803086687500000000E+06  0.803377375000000000E+06  0.803630437500000000E+06
            0.804004625000000000E+06  0.000000000000000000E+00  0.000000000000000000E+00  0.000000000000000000E+00
 ETA=    3  0.000000000000000000E+00  0.000000000000000000E+00  0.000000000000000000E+00  0.000000000000000000E+00  0.000000000000000000E+00
            0.000000000000000000E+00  0.000000000000000000E+00  0.000000000000000000E+00  0.000000000000000000E+00  0.000000000000000000E+00
            0.000000000000000000E+00  0.000000000000000000E+00  0.000000000000000000E+00  0.000000000000000000E+00  0.000000000000000000E+00
            0.000000000000000000E+00  0.000000000000000000E+00  0.000000000000000000E+00  0.000000000000000000E+00  0.000000000000000000E+00
            0.000000000000000000E+00  0.000000000000000000E+00  0.000000000000000000E+00  0.000000000000000000E+00  0.000000000000000000E+00
            0.000000000000000000E+00  0.000000000000000000E+00  0.000000000000000000E+00  0.000000000000000000E+00  0.000000000000000000E+00
            0.000000000000000000E+00  0.000000000000000000E+00  0.000000000000000000E+00  0.000000000000000000E+00  0.000000000000000000E+00
            0.000000000000000000E+00  0.000000000000000000E+00  0.000000000000000000E+00  0.000000000000000000E+00  0.000000000000000000E+00
            0.000000000000000000E+00  0.000000000000000000E+00  0.809321750000000000E+06  0.809127437500000000E+06  0.808881812500000000E+06
            0.808672312500000000E+06  0.808460812500000000E+06  0.808243875000000000E+06  0.808048000000000000E+06  0.807872250000000000E+06
            0.807720687500000000E+06  0.807588562500000000E+06  0.807469312500000000E+06  0.807356750000000000E+06  0.807248000000000000E+06
            0.807139062500000000E+06  0.807025937500000000E+06  0.806904125000000000E+06  0.806766750000000000E+06  0.806608625000000000E+06
            0.806428062500000000E+06  0.806226750000000000E+06  0.806008312500000000E+06  0.805773687500000000E+06  0.805525937500000000E+06
            0.805269437500000000E+06  0.805006000000000000E+06  0.804740062500000000E+06  0.804475625000000000E+06  0.804218875000000000E+06
            0.803973375000000000E+06  0.803742625000000000E+06  0.803530000000000000E+06  0.803334250000000000E+06  0.803157187500000000E+06
            0.803000625000000000E+06  0.802867750000000000E+06  0.802759187500000000E+06  0.802675687500000000E+06  0.802616437500000000E+06
            0.802579750000000000E+06  0.802565500000000000E+06  0.802573750000000000E+06  0.802604687500000000E+06  0.802658437500000000E+06
            0.802734625000000000E+06  0.802831375000000000E+06  0.802945250000000000E+06  0.803071562500000000E+06  0.803207562500000000E+06
            0.803359375000000000E+06  0.803541125000000000E+06  0.803769312500000000E+06  0.804060437500000000E+06  0.804387000000000000E+06
            0.804736812500000000E+06  0.805159812500000000E+06  0.000000000000000000E+00  0.000000000000000000E+00
 ETA=    4  0.000000000000000000E+00  0.000000000000000000E+00  0.000000000000000000E+00  0.000000000000000000E+00  0.000000000000000000E+00
            0.000000000000000000E+00  0.000000000000000000E+00  0.000000000000000000E+00  0.000000000000000000E+00  0.000000000000000000E+00
            0.000000000000000000E+00  0.000000000000000000E+00  0.000000000000000000E+00  0.000000000000000000E+00  0.000000000000000000E+00
            0.000000000000000000E+00  0.000000000000000000E+00  0.000000000000000000E+00  0.000000000000000000E+00  0.000000000000000000E+00
            0.000000000000000000E+00  0.000000000000000000E+00  0.000000000000000000E+00  0.000000000000000000E+00  0.000000000000000000E+00
            0.000000000000000000E+00  0.000000000000000000E+00  0.000000000000000000E+00  0.000000000000000000E+00  0.000000000000000000E+00
            0.000000000000000000E+00  0.000000000000000000E+00  0.000000000000000000E+00  0.000000000000000000E+00  0.000000000000000000E+00
            0.000000000000000000E+00  0.000000000000000000E+00  0.000000000000000000E+00  0.000000000000000000E+00  0.000000000000000000E+00
            0.000000000000000000E+00  0.000000000000000000E+00  0.809352312500000000E+06  0.809215187500000000E+06  0.809045937500000000E+06
            0.808827750000000000E+06  0.808617312500000000E+06  0.808416250000000000E+06  0.808230562500000000E+06  0.808064687500000000E+06
            0.807921750000000000E+06  0.807797437500000000E+06  0.807685750000000000E+06  0.807581250000000000E+06  0.807479875000000000E+06
            0.807378125000000000E+06  0.807271187500000000E+06  0.807154812500000000E+06  0.807023187500000000E+06  0.806871875000000000E+06
            0.806701187500000000E+06  0.806513250000000000E+06  0.806311437500000000E+06  0.806097812500000000E+06  0.805874625000000000E+06
            0.805645812500000000E+06  0.805413000000000000E+06  0.805178500000000000E+06  0.804944875000000000E+06  0.804717625000000000E+06
            0.804500312500000000E+06  0.804296375000000000E+06  0.804106937500000000E+06  0.803931937500000000E+06  0.803772375000000000E+06
            0.803630687500000000E+06  0.803508875000000000E+06  0.803408062500000000E+06  0.803329125000000000E+06  0.803272250000000000E+06
            0.803237250000000000E+06  0.803223875000000000E+06  0.803232250000000000E+06  0.803262812500000000E+06  0.803315562500000000E+06
            0.803389187500000000E+06  0.803481250000000000E+06  0.803589750000000000E+06  0.803712875000000000E+06  0.803849000000000000E+06
            0.804000562500000000E+06  0.804177500000000000E+06  0.804389937500000000E+06  0.804647562500000000E+06  0.804955125000000000E+06
            0.805293625000000000E+06  0.805493500000000000E+06  0.805778250000000000E+06  0.806323250000000000E+06
 ETA=    5  0.000000000000000000E+00  0.000000000000000000E+00  0.000000000000000000E+00  0.000000000000000000E+00  0.000000000000000000E+00
            0.000000000000000000E+00  0.000000000000000000E+00  0.000000000000000000E+00  0.000000000000000000E+00  0.000000000000000000E+00
            0.000000000000000000E+00  0.000000000000000000E+00  0.000000000000000000E+00  0.000000000000000000E+00  0.000000000000000000E+00
            0.000000000000000000E+00  0.000000000000000000E+00  0.000000000000000000E+00  0.000000000000000000E+00  0.000000000000000000E+00
            0.000000000000000000E+00  0.000000000000000000E+00  0.000000000000000000E+00  0.000000000000000000E+00  0.000000000000000000E+00
            0.000000000000000000E+00  0.000000000000000000E+00  0.000000000000000000E+00  0.000000000000000000E+00  0.000000000000000000E+00
            0.000000000000000000E+00  0.000000000000000000E+00  0.000000000000000000E+00  0.000000000000000000E+00  0.000000000000000000E+00
            0.000000000000000000E+00  0.000000000000000000E+00  0.000000000000000000E+00  0.000000000000000000E+00  0.000000000000000000E+00
            0.000000000000000000E+00  0.000000000000000000E+00  0.000000000000000000E+00  0.809357062500000000E+06  0.809189000000000000E+06
            0.808992250000000000E+06  0.808794375000000000E+06  0.808606125000000000E+06  0.808431312500000000E+06  0.808274250000000000E+06
            0.808139000000000000E+06  0.808021437500000000E+06  0.807916125000000000E+06  0.807817875000000000E+06  0.807723000000000000E+06
            0.807627375000000000E+06  0.807526625000000000E+06  0.807416687500000000E+06  0.807292500000000000E+06  0.807149812500000000E+06
            0.806990250000000000E+06  0.806816062500000000E+06  0.806631312500000000E+06  0.806437375000000000E+06  0.806236812500000000E+06
            0.806032687500000000E+06  0.805826437500000000E+06  0.805619312500000000E+06  0.805413312500000000E+06  0.805212937500000000E+06
            0.805021500000000000E+06  0.804841562500000000E+06  0.804674125000000000E+06  0.804518750000000000E+06  0.804376500000000000E+06
            0.804249125000000000E+06  0.804138625000000000E+06  0.804045937500000000E+06  0.803972812500000000E+06  0.803919875000000000E+06
            0.803887500000000000E+06  0.803875500000000000E+06  0.803884125000000000E+06  0.803913875000000000E+06  0.803964375000000000E+06
            0.804033312500000000E+06  0.804117750000000000E+06  0.804216312500000000E+06  0.804328937500000000E+06  0.804456000000000000E+06
            0.804598312500000000E+06  0.804761500000000000E+06  0.804949687500000000E+06  0.805172312500000000E+06  0.805431937500000000E+06
            0.805720687500000000E+06  0.806016062500000000E+06  0.806258187500000000E+06  0.806551062500000000E+06
 ETA=    6  0.000000000000000000E+00  0.000000000000000000E+00  0.000000000000000000E+00  0.000000000000000000E+00  0.000000000000000000E+00
            0.000000000000000000E+00  0.000000000000000000E+00  0.000000000000000000E+00  0.000000000000000000E+00  0.000000000000000000E+00
            0.000000000000000000E+00  0.000000000000000000E+00  0.000000000000000000E+00  0.000000000000000000E+00  0.000000000000000000E+00
            0.000000000000000000E+00  0.000000000000000000E+00  0.000000000000000000E+00  0.000000000000000000E+00  0.000000000000000000E+00
            0.000000000000000000E+00  0.000000000000000000E+00  0.000000000000000000E+00  0.000000000000000000E+00  0.000000000000000000E+00
            0.000000000000000000E+00  0.000000000000000000E+00  0.000000000000000000E+00  0.000000000000000000E+00  0.000000000000000000E+00
            0.000000000000000000E+00  0.000000000000000000E+00  0.000000000000000000E+00  0.000000000000000000E+00  0.000000000000000000E+00
            0.000000000000000000E+00  0.000000000000000000E+00  0.000000000000000000E+00  0.000000000000000000E+00  0.000000000000000000E+00
            0.000000000000000000E+00  0.000000000000000000E+00  0.000000000000000000E+00  0.809673937500000000E+06  0.809404375000000000E+06
            0.809207500000000000E+06  0.809001437500000000E+06  0.808821812500000000E+06  0.808656375000000000E+06  0.808504375000000000E+06
            0.808374125000000000E+06  0.808261437500000000E+06  0.808160937500000000E+06  0.808067875000000000E+06  0.807978187500000000E+06
            0.807888312500000000E+06  0.807793687500000000E+06  0.807690750000000000E+06  0.807574562500000000E+06  0.807441625000000000E+06
            0.807293812500000000E+06  0.807133937500000000E+06  0.806965312500000000E+06  0.806789750000000000E+06  0.806609375000000000E+06
            0.806427250000000000E+06  0.806243937500000000E+06  0.806060875000000000E+06  0.805879437500000000E+06  0.805703500000000000E+06
            0.805535562500000000E+06  0.805377812500000000E+06  0.805230500000000000E+06  0.805093625000000000E+06  0.804967375000000000E+06
            0.804853937500000000E+06  0.804754687500000000E+06  0.804670875000000000E+06  0.804604375000000000E+06  0.804556187500000000E+06
            0.804526812500000000E+06  0.804516437500000000E+06  0.804525250000000000E+06  0.804553562500000000E+06  0.804600625000000000E+06
            0.804663750000000000E+06  0.804739562500000000E+06  0.804826812500000000E+06  0.804925875000000000E+06  0.805037875000000000E+06
            0.805163125000000000E+06  0.805304250000000000E+06  0.805461750000000000E+06  0.805641875000000000E+06  0.805844562500000000E+06
            0.806058250000000000E+06  0.806307000000000000E+06  0.806355812500000000E+06  0.000000000000000000E+00
 ETA=    7  0.000000000000000000E+00  0.000000000000000000E+00  0.000000000000000000E+00  0.000000000000000000E+00  0.000000000000000000E+00
            0.000000000000000000E+00  0.000000000000000000E+00  0.000000000000000000E+00  0.000000000000000000E+00  0.000000000000000000E+00
            0.000000000000000000E+00  0.000000000000000000E+00  0.000000000000000000E+00  0.000000000000000000E+00  0.000000000000000000E+00
            0.000000000000000000E+00  0.000000000000000000E+00  0.000000000000000000E+00  0.000000000000000000E+00  0.000000000000000000E+00
            0.000000000000000000E+00  0.000000000000000000E+00  0.000000000000000000E+00  0.000000000000000000E+00  0.000000000000000000E+00
            0.000000000000000000E+00  0.000000000000000000E+00  0.000000000000000000E+00  0.000000000000000000E+00  0.000000000000000000E+00
            0.000000000000000000E+00  0.000000000000000000E+00  0.000000000000000000E+00  0.000000000000000000E+00  0.000000000000000000E+00
            0.000000000000000000E+00  0.000000000000000000E+00  0.000000000000000000E+00  0.000000000000000000E+00  0.000000000000000000E+00
            0.000000000000000000E+00  0.000000000000000000E+00  0.000000000000000000E+00  0.809872562500000000E+06  0.809642562500000000E+06
            0.809452875000000000E+06  0.809246937500000000E+06  0.809057625000000000E+06  0.808902562500000000E+06  0.808751875000000000E+06
            0.808625812500000000E+06  0.808517125000000000E+06  0.808420687500000000E+06  0.808331812500000000E+06  0.808246750000000000E+06
            0.808161750000000000E+06  0.808073125000000000E+06  0.807976937500000000E+06  0.807869125000000000E+06  0.807746250000000000E+06
            0.807610375000000000E+06  0.807464250000000000E+06  0.807310875000000000E+06  0.807152062500000000E+06  0.806990125000000000E+06
            0.806827312500000000E+06  0.806664500000000000E+06  0.806502687500000000E+06  0.806343437500000000E+06  0.806189500000000000E+06
            0.806042875000000000E+06  0.805905000000000000E+06  0.805776125000000000E+06  0.805655875000000000E+06  0.805544687500000000E+06
            0.805444125000000000E+06  0.805355687500000000E+06  0.805280625000000000E+06  0.805221000000000000E+06  0.805177875000000000E+06
            0.805151812500000000E+06  0.805143125000000000E+06  0.805152000000000000E+06  0.805178750000000000E+06  0.805222312500000000E+06
            0.805279812500000000E+06  0.805347687500000000E+06  0.805424625000000000E+06  0.805510875000000000E+06  0.805607562500000000E+06
            0.805714937500000000E+06  0.805833812500000000E+06  0.805963937500000000E+06  0.806109375000000000E+06  0.806271562500000000E+06
            0.806444312500000000E+06  0.806624125000000000E+06  0.806721875000000000E+06  0.000000000000000000E+00
 ETA=    8  0.000000000000000000E+00  0.000000000000000000E+00  0.000000000000000000E+00  0.000000000000000000E+00  0.000000000000000000E+00
            0.000000000000000000E+00  0.000000000000000000E+00  0.000000000000000000E+00  0.000000000000000000E+00  0.000000000000000000E+00
            0.000000000000000000E+00  0.000000000000000000E+00  0.000000000000000000E+00  0.000000000000000000E+00  0.000000000000000000E+00
            0.000000000000000000E+00  0.000000000000000000E+00  0.000000000000000000E+00  0.000000000000000000E+00  0.000000000000000000E+00
            0.000000000000000000E+00  0.000000000000000000E+00  0.000000000000000000E+00  0.000000000000000000E+00  0.000000000000000000E+00
            0.000000000000000000E+00  0.000000000000000000E+00  0.000000000000000000E+00  0.000000000000000000E+00  0.000000000000000000E+00
            0.000000000000000000E+00  0.000000000000000000E+00  0.000000000000000000E+00  0.000000000000000000E+00  0.000000000000000000E+00
            0.000000000000000000E+00  0.000000000000000000E+00  0.000000000000000000E+00  0.000000000000000000E+00  0.000000000000000000E+00
            0.000000000000000000E+00  0.000000000000000000E+00  0.000000000000000000E+00  0.809929375000000000E+06  0.809863125000000000E+06
            0.809782750000000000E+06  0.809546312500000000E+06  0.809339250000000000E+06  0.809157125000000000E+06  0.809007062500000000E+06
            0.808885437500000000E+06  0.808781062500000000E+06  0.808688812500000000E+06  0.808604437500000000E+06  0.808524000000000000E+06
            0.808444062500000000E+06  0.808361437500000000E+06  0.808272250000000000E+06  0.808172750000000000E+06  0.808060000000000000E+06
            0.807935875000000000E+06  0.807803187500000000E+06  0.807664250000000000E+06  0.807521375000000000E+06  0.807376312500000000E+06
            0.807231062500000000E+06  0.807086562500000000E+06  0.806944062500000000E+06  0.806804687500000000E+06  0.806670687500000000E+06
            0.806543125000000000E+06  0.806423125000000000E+06  0.806310500000000000E+06  0.806205250000000000E+06  0.806107437500000000E+06
            0.806018750000000000E+06  0.805940437500000000E+06  0.805873875000000000E+06  0.805820875000000000E+06  0.805782687500000000E+06
            0.805760062500000000E+06  0.805753312500000000E+06  0.805762500000000000E+06  0.805787812500000000E+06  0.805828000000000000E+06
            0.805880500000000000E+06  0.805941500000000000E+06  0.806009750000000000E+06  0.806085375000000000E+06  0.806169125000000000E+06
            0.806261500000000000E+06  0.806362812500000000E+06  0.806473625000000000E+06  0.806597750000000000E+06  0.806739437500000000E+06
            0.806896562500000000E+06  0.807048625000000000E+06  0.807120500000000000E+06  0.000000000000000000E+00
 ETA=    9  0.000000000000000000E+00  0.000000000000000000E+00  0.000000000000000000E+00  0.000000000000000000E+00  0.000000000000000000E+00
            0.000000000000000000E+00  0.000000000000000000E+00  0.000000000000000000E+00  0.000000000000000000E+00  0.000000000000000000E+00
            0.000000000000000000E+00  0.000000000000000000E+00  0.000000000000000000E+00  0.000000000000000000E+00  0.000000000000000000E+00
            0.000000000000000000E+00  0.000000000000000000E+00  0.000000000000000000E+00  0.000000000000000000E+00  0.000000000000000000E+00
            0.000000000000000000E+00  0.000000000000000000E+00  0.000000000000000000E+00  0.000000000000000000E+00  0.000000000000000000E+00
            0.000000000000000000E+00  0.000000000000000000E+00  0.000000000000000000E+00  0.000000000000000000E+00  0.000000000000000000E+00
            0.000000000000000000E+00  0.000000000000000000E+00  0.000000000000000000E+00  0.000000000000000000E+00  0.000000000000000000E+00
            0.000000000000000000E+00  0.000000000000000000E+00  0.000000000000000000E+00  0.000000000000000000E+00  0.000000000000000000E+00
            0.000000000000000000E+00  0.000000000000000000E+00  0.000000000000000000E+00  0.000000000000000000E+00  0.000000000000000000E+00
            0.000000000000000000E+00  0.000000000000000000E+00  0.000000000000000000E+00  0.809361750000000000E+06  0.809232375000000000E+06
            0.809126812500000000E+06  0.809034500000000000E+06  0.808951687500000000E+06  0.808875375000000000E+06  0.808802187500000000E+06
            0.808729250000000000E+06  0.808653812500000000E+06  0.808572375000000000E+06  0.808481812500000000E+06  0.808379437500000000E+06
            0.808267250000000000E+06  0.808147812500000000E+06  0.808023125000000000E+06  0.807895250000000000E+06  0.807766062500000000E+06
            0.807636875000000000E+06  0.807509125000000000E+06  0.807383875000000000E+06  0.807262437500000000E+06  0.807146000000000000E+06
            0.807035437500000000E+06  0.806931062500000000E+06  0.806832937500000000E+06  0.806740937500000000E+06  0.806655375000000000E+06
            0.806577625000000000E+06  0.806508750000000000E+06  0.806449937500000000E+06  0.806403250000000000E+06  0.806369812500000000E+06
            0.806350562500000000E+06  0.806345562500000000E+06  0.806355125000000000E+06  0.806378875000000000E+06  0.806415875000000000E+06
            0.806463625000000000E+06  0.806518437500000000E+06  0.806578937500000000E+06  0.806644875000000000E+06  0.806716562500000000E+06
            0.806794312500000000E+06  0.806878062500000000E+06  0.806968437500000000E+06  0.807068062500000000E+06  0.807180312500000000E+06
            0.807234375000000000E+06  0.807218125000000000E+06  0.000000000000000000E+00  0.000000000000000000E+00
 ETA=   10  0.000000000000000000E+00  0.000000000000000000E+00  0.000000000000000000E+00  0.000000000000000000E+00  0.000000000000000000E+00
            0.000000000000000000E+00  0.000000000000000000E+00  0.000000000000000000E+00  0.000000000000000000E+00  0.000000000000000000E+00
            0.000000000000000000E+00  0.000000000000000000E+00  0.000000000000000000E+00  0.000000000000000000E+00  0.000000000000000000E+00
            0.000000000000000000E+00  0.000000000000000000E+00  0.000000000000000000E+00  0.000000000000000000E+00  0.000000000000000000E+00
            0.000000000000000000E+00  0.000000000000000000E+00  0.000000000000000000E+00  0.000000000000000000E+00  0.000000000000000000E+00
            0.000000000000000000E+00  0.000000000000000000E+00  0.000000000000000000E+00  0.000000000000000000E+00  0.000000000000000000E+00
            0.000000000000000000E+00  0.000000000000000000E+00  0.000000000000000000E+00  0.000000000000000000E+00  0.000000000000000000E+00
            0.000000000000000000E+00  0.000000000000000000E+00  0.000000000000000000E+00  0.000000000000000000E+00  0.000000000000000000E+00
            0.000000000000000000E+00  0.000000000000000000E+00  0.000000000000000000E+00  0.000000000000000000E+00  0.000000000000000000E+00
            0.000000000000000000E+00  0.000000000000000000E+00  0.000000000000000000E+00  0.809609937500000000E+06  0.809494437500000000E+06
            0.809396812500000000E+06  0.809311250000000000E+06  0.809234312500000000E+06  0.809163500000000000E+06  0.809095500000000000E+06
            0.809027875000000000E+06  0.808957937500000000E+06  0.808882812500000000E+06  0.808799812500000000E+06  0.808706812500000000E+06
            0.808605500000000000E+06  0.808498187500000000E+06  0.808386562500000000E+06  0.808272750000000000E+06  0.808157937500000000E+06
            0.808043687500000000E+06  0.807931125000000000E+06  0.807821437500000000E+06  0.807715812500000000E+06  0.807614875000000000E+06
            0.807518875000000000E+06  0.807428187500000000E+06  0.807342687500000000E+06  0.807262500000000000E+06  0.807187875000000000E+06
            0.807119937500000000E+06  0.807059625000000000E+06  0.807008187500000000E+06  0.806967437500000000E+06  0.806938687500000000E+06
            0.806922625000000000E+06  0.806919375000000000E+06  0.806929000000000000E+06  0.806951375000000000E+06  0.806985437500000000E+06
            0.807028750000000000E+06  0.807077750000000000E+06  0.807130812500000000E+06  0.807187375000000000E+06  0.807381000000000000E+06
            0.807519312500000000E+06  0.807374562500000000E+06  0.000000000000000000E+00  0.807543000000000000E+06  0.807591125000000000E+06
            0.807648812500000000E+06  0.000000000000000000E+00  0.000000000000000000E+00  0.000000000000000000E+00
 ETA=   11  0.000000000000000000E+00  0.000000000000000000E+00  0.000000000000000000E+00  0.000000000000000000E+00  0.000000000000000000E+00
            0.000000000000000000E+00  0.000000000000000000E+00  0.000000000000000000E+00  0.000000000000000000E+00  0.000000000000000000E+00
            0.000000000000000000E+00  0.000000000000000000E+00  0.000000000000000000E+00  0.000000000000000000E+00  0.000000000000000000E+00
            0.000000000000000000E+00  0.000000000000000000E+00  0.000000000000000000E+00  0.000000000000000000E+00  0.000000000000000000E+00
            0.000000000000000000E+00  0.000000000000000000E+00  0.000000000000000000E+00  0.000000000000000000E+00  0.000000000000000000E+00
            0.000000000000000000E+00  0.000000000000000000E+00  0.000000000000000000E+00  0.000000000000000000E+00  0.000000000000000000E+00
            0.000000000000000000E+00  0.000000000000000000E+00  0.000000000000000000E+00  0.000000000000000000E+00  0.000000000000000000E+00
            0.000000000000000000E+00  0.000000000000000000E+00  0.000000000000000000E+00  0.000000000000000000E+00  0.000000000000000000E+00
            0.000000000000000000E+00  0.000000000000000000E+00  0.000000000000000000E+00  0.000000000000000000E+00  0.000000000000000000E+00
            0.000000000000000000E+00  0.000000000000000000E+00  0.000000000000000000E+00  0.809891562500000000E+06  0.809770375000000000E+06
            0.809680187500000000E+06  0.809601062500000000E+06  0.809529750000000000E+06  0.809463875000000000E+06  0.809400500000000000E+06
            0.809337312500000000E+06  0.809272125000000000E+06  0.809202437500000000E+06  0.809126062500000000E+06  0.809041312500000000E+06
            0.808949812500000000E+06  0.808853500000000000E+06  0.808753812500000000E+06  0.808652562500000000E+06  0.808550875000000000E+06
            0.808449937500000000E+06  0.808351000000000000E+06  0.808255125000000000E+06  0.808163375000000000E+06  0.808075875000000000E+06
            0.807992812500000000E+06  0.807914125000000000E+06  0.807839875000000000E+06  0.807770125000000000E+06  0.807705250000000000E+06
            0.807646250000000000E+06  0.807594000000000000E+06  0.807549437500000000E+06  0.807514375000000000E+06  0.807489812500000000E+06
            0.807476500000000000E+06  0.807474625000000000E+06  0.807484250000000000E+06  0.807505062500000000E+06  0.807536250000000000E+06
            0.807575250000000000E+06  0.807618937500000000E+06  0.000000000000000000E+00  0.000000000000000000E+00  0.000000000000000000E+00
            0.000000000000000000E+00  0.000000000000000000E+00  0.000000000000000000E+00  0.807947062500000000E+06  0.807970562500000000E+06
            0.808012125000000000E+06  0.000000000000000000E+00  0.000000000000000000E+00  0.000000000000000000E+00
 ETA=   12  0.000000000000000000E+00  0.000000000000000000E+00  0.000000000000000000E+00  0.000000000000000000E+00  0.000000000000000000E+00
            0.000000000000000000E+00  0.000000000000000000E+00  0.000000000000000000E+00  0.000000000000000000E+00  0.000000000000000000E+00
            0.000000000000000000E+00  0.000000000000000000E+00  0.000000000000000000E+00  0.000000000000000000E+00  0.000000000000000000E+00
            0.000000000000000000E+00  0.000000000000000000E+00  0.000000000000000000E+00  0.000000000000000000E+00  0.000000000000000000E+00
            0.000000000000000000E+00  0.000000000000000000E+00  0.000000000000000000E+00  0.000000000000000000E+00  0.000000000000000000E+00
            0.000000000000000000E+00  0.000000000000000000E+00  0.000000000000000000E+00  0.000000000000000000E+00  0.000000000000000000E+00
            0.000000000000000000E+00  0.000000000000000000E+00  0.000000000000000000E+00  0.000000000000000000E+00  0.000000000000000000E+00
            0.000000000000000000E+00  0.000000000000000000E+00  0.000000000000000000E+00  0.000000000000000000E+00  0.000000000000000000E+00
            0.000000000000000000E+00  0.000000000000000000E+00  0.000000000000000000E+00  0.000000000000000000E+00  0.000000000000000000E+00
            0.000000000000000000E+00  0.000000000000000000E+00  0.000000000000000000E+00  0.810170625000000000E+06  0.810051750000000000E+06
            0.809971312500000000E+06  0.809899562500000000E+06  0.809834062500000000E+06  0.809772937500000000E+06  0.809713812500000000E+06
            0.809654687500000000E+06  0.809593687500000000E+06  0.809528937500000000E+06  0.809458625000000000E+06  0.809381437500000000E+06
            0.809298875000000000E+06  0.809212562500000000E+06  0.809123812500000000E+06  0.809034125000000000E+06  0.808944375000000000E+06
            0.808855625000000000E+06  0.808769062500000000E+06  0.808685562500000000E+06  0.808605937500000000E+06  0.808530375000000000E+06
            0.808458562500000000E+06  0.808390500000000000E+06  0.808326187500000000E+06  0.808266000000000000E+06  0.808210187500000000E+06
            0.808159625000000000E+06  0.808115000000000000E+06  0.808077187500000000E+06  0.808047437500000000E+06  0.808026750000000000E+06
            0.808015625000000000E+06  0.808014437500000000E+06  0.808023437500000000E+06  0.808042562500000000E+06  0.808070750000000000E+06
            0.808105875000000000E+06  0.808144750000000000E+06  0.000000000000000000E+00  0.000000000000000000E+00  0.000000000000000000E+00
            0.000000000000000000E+00  0.000000000000000000E+00  0.000000000000000000E+00  0.808342937500000000E+06  0.808365437500000000E+06
            0.000000000000000000E+00  0.000000000000000000E+00  0.000000000000000000E+00  0.000000000000000000E+00
 ETA=   13  0.000000000000000000E+00  0.000000000000000000E+00  0.000000000000000000E+00  0.000000000000000000E+00  0.000000000000000000E+00
            0.000000000000000000E+00  0.000000000000000000E+00  0.000000000000000000E+00  0.000000000000000000E+00  0.000000000000000000E+00
            0.000000000000000000E+00  0.000000000000000000E+00  0.000000000000000000E+00  0.000000000000000000E+00  0.000000000000000000E+00
            0.000000000000000000E+00  0.000000000000000000E+00  0.000000000000000000E+00  0.000000000000000000E+00  0.000000000000000000E+00
            0.000000000000000000E+00  0.000000000000000000E+00  0.000000000000000000E+00  0.000000000000000000E+00  0.000000000000000000E+00
            0.000000000000000000E+00  0.000000000000000000E+00  0.000000000000000000E+00  0.000000000000000000E+00  0.000000000000000000E+00
            0.000000000000000000E+00  0.000000000000000000E+00  0.000000000000000000E+00  0.000000000000000000E+00  0.000000000000000000E+00
            0.000000000000000000E+00  0.000000000000000000E+00  0.000000000000000000E+00  0.000000000000000000E+00  0.000000000000000000E+00
            0.000000000000000000E+00  0.000000000000000000E+00  0.000000000000000000E+00  0.000000000000000000E+00  0.810861125000000000E+06
            0.810837500000000000E+06  0.810638812500000000E+06  0.810520562500000000E+06  0.810463812500000000E+06  0.810345312500000000E+06
            0.810271750000000000E+06  0.810206125000000000E+06  0.810146000000000000E+06  0.810089312500000000E+06  0.810034125000000000E+06
            0.809978875000000000E+06  0.809921937500000000E+06  0.809861812500000000E+06  0.809797125000000000E+06  0.809727000000000000E+06
            0.809652687500000000E+06  0.809575562500000000E+06  0.809497000000000000E+06  0.809418000000000000E+06  0.809339375000000000E+06
            0.809261875000000000E+06  0.809186562500000000E+06  0.809114125000000000E+06  0.809045500000000000E+06  0.808980437500000000E+06
            0.808918750000000000E+06  0.808860250000000000E+06  0.808805187500000000E+06  0.808753750000000000E+06  0.808706375000000000E+06
            0.808663687500000000E+06  0.808626250000000000E+06  0.808594687500000000E+06  0.808570000000000000E+06  0.808552687500000000E+06
            0.808543312500000000E+06  0.808542312500000000E+06  0.808550187500000000E+06  0.808567062500000000E+06  0.808592187500000000E+06
            0.808623687500000000E+06  0.808633812500000000E+06  0.000000000000000000E+00  0.000000000000000000E+00  0.000000000000000000E+00
            0.000000000000000000E+00  0.000000000000000000E+00  0.000000000000000000E+00  0.808766000000000000E+06  0.808768750000000000E+06
            0.808763250000000000E+06  0.000000000000000000E+00  0.000000000000000000E+00  0.000000000000000000E+00
 ETA=   14  0.000000000000000000E+00  0.000000000000000000E+00  0.000000000000000000E+00  0.000000000000000000E+00  0.000000000000000000E+00
            0.000000000000000000E+00  0.000000000000000000E+00  0.000000000000000000E+00  0.000000000000000000E+00  0.000000000000000000E+00
            0.000000000000000000E+00  0.000000000000000000E+00  0.000000000000000000E+00  0.000000000000000000E+00  0.000000000000000000E+00
            0.000000000000000000E+00  0.000000000000000000E+00  0.000000000000000000E+00  0.000000000000000000E+00  0.000000000000000000E+00
            0.000000000000000000E+00  0.000000000000000000E+00  0.000000000000000000E+00  0.000000000000000000E+00  0.000000000000000000E+00
            0.000000000000000000E+00  0.000000000000000000E+00  0.000000000000000000E+00  0.000000000000000000E+00  0.000000000000000000E+00
            0.000000000000000000E+00  0.000000000000000000E+00  0.000000000000000000E+00  0.000000000000000000E+00  0.000000000000000000E+00
            0.000000000000000000E+00  0.000000000000000000E+00  0.000000000000000000E+00  0.000000000000000000E+00  0.000000000000000000E+00
            0.000000000000000000E+00  0.000000000000000000E+00  0.000000000000000000E+00  0.000000000000000000E+00  0.811045562500000000E+06
            0.810951000000000000E+06  0.810866500000000000E+06  0.810790125000000000E+06  0.810708500000000000E+06  0.810636750000000000E+06
            0.810573187500000000E+06  0.810515500000000000E+06  0.810461625000000000E+06  0.810410062500000000E+06  0.810359250000000000E+06
            0.810308062500000000E+06  0.810255187500000000E+06  0.810199625000000000E+06  0.810140500000000000E+06  0.810077250000000000E+06
            0.810010875000000000E+06  0.809942687500000000E+06  0.809873687500000000E+06  0.809804812500000000E+06  0.809736562500000000E+06
            0.809669625000000000E+06  0.809604812500000000E+06  0.809542750000000000E+06  0.809484062500000000E+06  0.809428562500000000E+06
            0.809376000000000000E+06  0.809326312500000000E+06  0.809279750000000000E+06  0.809236500000000000E+06  0.809196937500000000E+06
            0.809161562500000000E+06  0.809130687500000000E+06  0.809104937500000000E+06  0.809084625000000000E+06  0.809070312500000000E+06
            0.809062250000000000E+06  0.809061062500000000E+06  0.809067312500000000E+06  0.809081500000000000E+06  0.809103250000000000E+06
            0.809131062500000000E+06  0.809130062500000000E+06  0.000000000000000000E+00  0.000000000000000000E+00  0.000000000000000000E+00
            0.000000000000000000E+00  0.000000000000000000E+00  0.000000000000000000E+00  0.809223312500000000E+06  0.809191687500000000E+06
            0.809148312500000000E+06  0.000000000000000000E+00  0.000000000000000000E+00  0.000000000000000000E+00
 ETA=   15  0.000000000000000000E+00  0.000000000000000000E+00  0.000000000000000000E+00  0.000000000000000000E+00  0.000000000000000000E+00
            0.000000000000000000E+00  0.000000000000000000E+00  0.000000000000000000E+00  0.000000000000000000E+00  0.000000000000000000E+00
            0.000000000000000000E+00  0.000000000000000000E+00  0.000000000000000000E+00  0.000000000000000000E+00  0.000000000000000000E+00
            0.000000000000000000E+00  0.000000000000000000E+00  0.000000000000000000E+00  0.000000000000000000E+00  0.000000000000000000E+00
            0.000000000000000000E+00  0.000000000000000000E+00  0.000000000000000000E+00  0.000000000000000000E+00  0.000000000000000000E+00
            0.000000000000000000E+00  0.000000000000000000E+00  0.000000000000000000E+00  0.000000000000000000E+00  0.000000000000000000E+00
            0.000000000000000000E+00  0.000000000000000000E+00  0.000000000000000000E+00  0.000000000000000000E+00  0.000000000000000000E+00
            0.000000000000000000E+00  0.000000000000000000E+00  0.000000000000000000E+00  0.000000000000000000E+00  0.000000000000000000E+00
            0.000000000000000000E+00  0.000000000000000000E+00  0.000000000000000000E+00  0.000000000000000000E+00  0.811293937500000000E+06
            0.811217062500000000E+06  0.811137687500000000E+06  0.811067875000000000E+06  0.811001375000000000E+06  0.810940562500000000E+06
            0.810885312500000000E+06  0.810834187500000000E+06  0.810785687500000000E+06  0.810738500000000000E+06  0.810691687500000000E+06
            0.810644187500000000E+06  0.810595375000000000E+06  0.810544312500000000E+06  0.810490562500000000E+06  0.810433937500000000E+06
            0.810375187500000000E+06  0.810315375000000000E+06  0.810255500000000000E+06  0.810196062500000000E+06  0.810137562500000000E+06
            0.810080500000000000E+06  0.810025437500000000E+06  0.809972875000000000E+06  0.809923437500000000E+06  0.809876812500000000E+06
            0.809832750000000000E+06  0.809791250000000000E+06  0.809752500000000000E+06  0.809716687500000000E+06  0.809684250000000000E+06
            0.809655500000000000E+06  0.809630750000000000E+06  0.809610062500000000E+06  0.809593750000000000E+06  0.809581937500000000E+06
            0.809574875000000000E+06  0.809573062500000000E+06  0.809577312500000000E+06  0.809588437500000000E+06  0.809606687500000000E+06
            0.809631125000000000E+06  0.000000000000000000E+00  0.000000000000000000E+00  0.000000000000000000E+00  0.000000000000000000E+00
            0.000000000000000000E+00  0.000000000000000000E+00  0.000000000000000000E+00  0.809644500000000000E+06  0.809584812500000000E+06
            0.000000000000000000E+00  0.000000000000000000E+00  0.000000000000000000E+00  0.000000000000000000E+00
 ETA=   16  0.000000000000000000E+00  0.000000000000000000E+00  0.000000000000000000E+00  0.000000000000000000E+00  0.000000000000000000E+00
            0.000000000000000000E+00  0.000000000000000000E+00  0.000000000000000000E+00  0.000000000000000000E+00  0.000000000000000000E+00
            0.000000000000000000E+00  0.000000000000000000E+00  0.000000000000000000E+00  0.000000000000000000E+00  0.000000000000000000E+00
            0.000000000000000000E+00  0.000000000000000000E+00  0.000000000000000000E+00  0.000000000000000000E+00  0.000000000000000000E+00
            0.000000000000000000E+00  0.000000000000000000E+00  0.000000000000000000E+00  0.000000000000000000E+00  0.000000000000000000E+00
            0.000000000000000000E+00  0.000000000000000000E+00  0.000000000000000000E+00  0.000000000000000000E+00  0.000000000000000000E+00
            0.000000000000000000E+00  0.000000000000000000E+00  0.000000000000000000E+00  0.000000000000000000E+00  0.000000000000000000E+00
            0.000000000000000000E+00  0.000000000000000000E+00  0.000000000000000000E+00  0.000000000000000000E+00  0.000000000000000000E+00
            0.000000000000000000E+00  0.000000000000000000E+00  0.000000000000000000E+00  0.811636562500000000E+06  0.811567187500000000E+06
            0.811495937500000000E+06  0.811429187500000000E+06  0.811367687500000000E+06  0.811310812500000000E+06  0.811258437500000000E+06
            0.811210062500000000E+06  0.811164500000000000E+06  0.811120562500000000E+06  0.811077375000000000E+06  0.811034187500000000E+06
            0.810990375000000000E+06  0.810945312500000000E+06  0.810898687500000000E+06  0.810850125000000000E+06  0.810799750000000000E+06
            0.810748250000000000E+06  0.810696500000000000E+06  0.810645187500000000E+06  0.810594750000000000E+06  0.810545375000000000E+06
            0.810497562500000000E+06  0.810451562500000000E+06  0.810407875000000000E+06  0.810366875000000000E+06  0.810328312500000000E+06
            0.810291937500000000E+06  0.810257875000000000E+06  0.810226250000000000E+06  0.810197187500000000E+06  0.810171000000000000E+06
            0.810148000000000000E+06  0.810128187500000000E+06  0.810111812500000000E+06  0.810098687500000000E+06  0.810088750000000000E+06
            0.810082250000000000E+06  0.810079625000000000E+06  0.810081750000000000E+06  0.810089750000000000E+06  0.810104312500000000E+06
            0.810114437500000000E+06  0.000000000000000000E+00  0.000000000000000000E+00  0.000000000000000000E+00  0.000000000000000000E+00
            0.000000000000000000E+00  0.000000000000000000E+00  0.000000000000000000E+00  0.810056625000000000E+06  0.809986187500000000E+06
            0.000000000000000000E+00  0.000000000000000000E+00  0.000000000000000000E+00  0.000000000000000000E+00
 ETA=   17  0.000000000000000000E+00  0.000000000000000000E+00  0.000000000000000000E+00  0.000000000000000000E+00  0.000000000000000000E+00
            0.000000000000000000E+00  0.000000000000000000E+00  0.000000000000000000E+00  0.000000000000000000E+00  0.000000000000000000E+00
            0.000000000000000000E+00  0.000000000000000000E+00  0.000000000000000000E+00  0.000000000000000000E+00  0.000000000000000000E+00
            0.000000000000000000E+00  0.000000000000000000E+00  0.000000000000000000E+00  0.000000000000000000E+00  0.000000000000000000E+00
            0.000000000000000000E+00  0.000000000000000000E+00  0.000000000000000000E+00  0.000000000000000000E+00  0.000000000000000000E+00
            0.000000000000000000E+00  0.000000000000000000E+00  0.000000000000000000E+00  0.000000000000000000E+00  0.000000000000000000E+00
            0.000000000000000000E+00  0.000000000000000000E+00  0.000000000000000000E+00  0.000000000000000000E+00  0.000000000000000000E+00
            0.000000000000000000E+00  0.000000000000000000E+00  0.000000000000000000E+00  0.000000000000000000E+00  0.000000000000000000E+00
            0.000000000000000000E+00  0.000000000000000000E+00  0.000000000000000000E+00  0.811950375000000000E+06  0.811877562500000000E+06
            0.811808937500000000E+06  0.811746625000000000E+06  0.811690375000000000E+06  0.811639250000000000E+06  0.811592500000000000E+06
            0.811548937500000000E+06  0.811507500000000000E+06  0.811467312500000000E+06  0.811427562500000000E+06  0.811387750000000000E+06
            0.811347437500000000E+06  0.811306187500000000E+06  0.811263812500000000E+06  0.811220437500000000E+06  0.811176187500000000E+06
            0.811131687500000000E+06  0.811087562500000000E+06  0.811044437500000000E+06  0.811002312500000000E+06  0.810961437500000000E+06
            0.810921937500000000E+06  0.810884187500000000E+06  0.810848500000000000E+06  0.810815125000000000E+06  0.810783750000000000E+06
            0.810754312500000000E+06  0.810726750000000000E+06  0.810701375000000000E+06  0.810678125000000000E+06  0.810657375000000000E+06
            0.810639062500000000E+06  0.810623312500000000E+06  0.810610250000000000E+06  0.810599625000000000E+06  0.810591187500000000E+06
            0.810584875000000000E+06  0.810581250000000000E+06  0.810581187500000000E+06  0.810585812500000000E+06  0.810596375000000000E+06
            0.000000000000000000E+00  0.000000000000000000E+00  0.000000000000000000E+00  0.000000000000000000E+00  0.000000000000000000E+00
            0.000000000000000000E+00  0.000000000000000000E+00  0.000000000000000000E+00  0.810536562500000000E+06  0.810458875000000000E+06
            0.810331562500000000E+06  0.810382000000000000E+06  0.000000000000000000E+00  0.000000000000000000E+00
 ETA=   18  0.000000000000000000E+00  0.000000000000000000E+00  0.000000000000000000E+00  0.000000000000000000E+00  0.000000000000000000E+00
            0.000000000000000000E+00  0.000000000000000000E+00  0.000000000000000000E+00  0.000000000000000000E+00  0.000000000000000000E+00
            0.000000000000000000E+00  0.000000000000000000E+00  0.000000000000000000E+00  0.000000000000000000E+00  0.000000000000000000E+00
            0.000000000000000000E+00  0.000000000000000000E+00  0.000000000000000000E+00  0.000000000000000000E+00  0.000000000000000000E+00
            0.000000000000000000E+00  0.000000000000000000E+00  0.000000000000000000E+00  0.000000000000000000E+00  0.000000000000000000E+00
            0.000000000000000000E+00  0.000000000000000000E+00  0.000000000000000000E+00  0.000000000000000000E+00  0.000000000000000000E+00
            0.000000000000000000E+00  0.000000000000000000E+00  0.000000000000000000E+00  0.000000000000000000E+00  0.000000000000000000E+00
            0.000000000000000000E+00  0.000000000000000000E+00  0.000000000000000000E+00  0.000000000000000000E+00  0.000000000000000000E+00
            0.000000000000000000E+00  0.000000000000000000E+00  0.000000000000000000E+00  0.812250250000000000E+06  0.812186812500000000E+06
            0.812127375000000000E+06  0.812072625000000000E+06  0.812022937500000000E+06  0.811977687500000000E+06  0.811935937500000000E+06
            0.811896625000000000E+06  0.811858812500000000E+06  0.811821875000000000E+06  0.811785250000000000E+06  0.811748750000000000E+06
            0.811712000000000000E+06  0.811674687500000000E+06  0.811636812500000000E+06  0.811598562500000000E+06  0.811560375000000000E+06
            0.811522687500000000E+06  0.811485937500000000E+06  0.811450312500000000E+06  0.811415937500000000E+06  0.811382812500000000E+06
            0.811351062500000000E+06  0.811320875000000000E+06  0.811292500000000000E+06  0.811266000000000000E+06  0.811241125000000000E+06
            0.811217875000000000E+06  0.811196187500000000E+06  0.811176187500000000E+06  0.811158000000000000E+06  0.811141687500000000E+06
            0.811127312500000000E+06  0.811114937500000000E+06  0.811104500000000000E+06  0.811095625000000000E+06  0.811088187500000000E+06
            0.811082000000000000E+06  0.811077500000000000E+06  0.811075250000000000E+06  0.811076562500000000E+06  0.811082750000000000E+06
            0.000000000000000000E+00  0.000000000000000000E+00  0.000000000000000000E+00  0.000000000000000000E+00  0.000000000000000000E+00
            0.000000000000000000E+00  0.000000000000000000E+00  0.811244312500000000E+06  0.811097875000000000E+06  0.811056062500000000E+06
            0.810992000000000000E+06  0.811000250000000000E+06  0.000000000000000000E+00  0.000000000000000000E+00
 ETA=   19  0.000000000000000000E+00  0.000000000000000000E+00  0.000000000000000000E+00  0.000000000000000000E+00  0.000000000000000000E+00
            0.000000000000000000E+00  0.000000000000000000E+00  0.000000000000000000E+00  0.000000000000000000E+00  0.000000000000000000E+00
            0.000000000000000000E+00  0.000000000000000000E+00  0.000000000000000000E+00  0.000000000000000000E+00  0.000000000000000000E+00
            0.000000000000000000E+00  0.000000000000000000E+00  0.000000000000000000E+00  0.000000000000000000E+00  0.000000000000000000E+00
            0.000000000000000000E+00  0.000000000000000000E+00  0.000000000000000000E+00  0.000000000000000000E+00  0.000000000000000000E+00
            0.000000000000000000E+00  0.000000000000000000E+00  0.000000000000000000E+00  0.000000000000000000E+00  0.000000000000000000E+00
            0.000000000000000000E+00  0.000000000000000000E+00  0.000000000000000000E+00  0.000000000000000000E+00  0.000000000000000000E+00
            0.000000000000000000E+00  0.000000000000000000E+00  0.000000000000000000E+00  0.000000000000000000E+00  0.813065000000000000E+06
            0.812965687500000000E+06  0.812838000000000000E+06  0.812625687500000000E+06  0.812565375000000000E+06  0.812508187500000000E+06
            0.812454562500000000E+06  0.812405625000000000E+06  0.812361500000000000E+06  0.812321312500000000E+06  0.812284000000000000E+06
            0.812248312500000000E+06  0.812213812500000000E+06  0.812180125000000000E+06  0.812146812500000000E+06  0.812113750000000000E+06
            0.812080625000000000E+06  0.812047437500000000E+06  0.812014250000000000E+06  0.811981312500000000E+06  0.811949187500000000E+06
            0.811918125000000000E+06  0.811888250000000000E+06  0.811859750000000000E+06  0.811832500000000000E+06  0.811806625000000000E+06
            0.811782000000000000E+06  0.811758750000000000E+06  0.811737000000000000E+06  0.811716875000000000E+06  0.811698000000000000E+06
            0.811680437500000000E+06  0.811663937500000000E+06  0.811648750000000000E+06  0.811634812500000000E+06  0.811622250000000000E+06
            0.811611062500000000E+06  0.811601312500000000E+06  0.811592875000000000E+06  0.811585562500000000E+06  0.811578875000000000E+06
            0.811572875000000000E+06  0.811567625000000000E+06  0.811563875000000000E+06  0.811562562500000000E+06  0.811565125000000000E+06
            0.000000000000000000E+00  0.000000000000000000E+00  0.000000000000000000E+00  0.811839062500000000E+06  0.811773937500000000E+06
            0.811671062500000000E+06  0.811688250000000000E+06  0.811716187500000000E+06  0.811750750000000000E+06  0.811439562500000000E+06
            0.811252437500000000E+06  0.000000000000000000E+00  0.000000000000000000E+00  0.000000000000000000E+00
 ETA=   20  0.000000000000000000E+00  0.000000000000000000E+00  0.000000000000000000E+00  0.000000000000000000E+00  0.000000000000000000E+00
            0.000000000000000000E+00  0.000000000000000000E+00  0.000000000000000000E+00  0.000000000000000000E+00  0.000000000000000000E+00
            0.000000000000000000E+00  0.000000000000000000E+00  0.000000000000000000E+00  0.000000000000000000E+00  0.000000000000000000E+00
            0.000000000000000000E+00  0.000000000000000000E+00  0.000000000000000000E+00  0.000000000000000000E+00  0.000000000000000000E+00
            0.000000000000000000E+00  0.000000000000000000E+00  0.000000000000000000E+00  0.000000000000000000E+00  0.000000000000000000E+00
            0.000000000000000000E+00  0.000000000000000000E+00  0.000000000000000000E+00  0.000000000000000000E+00  0.000000000000000000E+00
            0.000000000000000000E+00  0.000000000000000000E+00  0.000000000000000000E+00  0.000000000000000000E+00  0.000000000000000000E+00
            0.813802875000000000E+06  0.813623125000000000E+06  0.813462312500000000E+06  0.813329937500000000E+06  0.813230437500000000E+06
            0.813118312500000000E+06  0.813019625000000000E+06  0.812945875000000000E+06  0.812885750000000000E+06  0.812831562500000000E+06
            0.812782500000000000E+06  0.812738562500000000E+06  0.812699437500000000E+06  0.812663750000000000E+06  0.812630500000000000E+06
            0.812598437500000000E+06  0.812567375000000000E+06  0.812537000000000000E+06  0.812507250000000000E+06  0.812478000000000000E+06
            0.812449000000000000E+06  0.812420250000000000E+06  0.812392062500000000E+06  0.812364562500000000E+06  0.812338500000000000E+06
            0.812313750000000000E+06  0.812290500000000000E+06  0.812268562500000000E+06  0.812248062500000000E+06  0.812228625000000000E+06
            0.812210500000000000E+06  0.812193437500000000E+06  0.812177562500000000E+06  0.812162937500000000E+06  0.812149437500000000E+06
            0.812136687500000000E+06  0.812124937500000000E+06  0.812114000000000000E+06  0.812104000000000000E+06  0.812094812500000000E+06
            0.812086500000000000E+06  0.812079062500000000E+06  0.812072562500000000E+06  0.812066562500000000E+06  0.812060875000000000E+06
            0.812055250000000000E+06  0.812049875000000000E+06  0.812045250000000000E+06  0.812042187500000000E+06  0.812042000000000000E+06
            0.812045875000000000E+06  0.812262062500000000E+06  0.812075125000000000E+06  0.812102062500000000E+06  0.812135000000000000E+06
            0.812183875000000000E+06  0.812240187500000000E+06  0.812312187500000000E+06  0.812358812500000000E+06  0.000000000000000000E+00
            0.000000000000000000E+00  0.000000000000000000E+00  0.000000000000000000E+00  0.000000000000000000E+00
 ETA=   21  0.000000000000000000E+00  0.000000000000000000E+00  0.000000000000000000E+00  0.000000000000000000E+00  0.000000000000000000E+00
            0.000000000000000000E+00  0.000000000000000000E+00  0.000000000000000000E+00  0.000000000000000000E+00  0.000000000000000000E+00
            0.000000000000000000E+00  0.000000000000000000E+00  0.000000000000000000E+00  0.000000000000000000E+00  0.000000000000000000E+00
            0.000000000000000000E+00  0.000000000000000000E+00  0.000000000000000000E+00  0.000000000000000000E+00  0.000000000000000000E+00
            0.000000000000000000E+00  0.000000000000000000E+00  0.000000000000000000E+00  0.000000000000000000E+00  0.000000000000000000E+00
            0.000000000000000000E+00  0.000000000000000000E+00  0.814769437500000000E+06  0.814668562500000000E+06  0.000000000000000000E+00
            0.000000000000000000E+00  0.000000000000000000E+00  0.000000000000000000E+00  0.000000000000000000E+00  0.814072437500000000E+06
            0.813921250000000000E+06  0.813814250000000000E+06  0.813710437500000000E+06  0.813595187500000000E+06  0.813478875000000000E+06
            0.813370562500000000E+06  0.813295062500000000E+06  0.813235812500000000E+06  0.813185687500000000E+06  0.813140812500000000E+06
            0.813100125000000000E+06  0.813063562500000000E+06  0.813030625000000000E+06  0.813000250000000000E+06  0.812971375000000000E+06
            0.812943375000000000E+06  0.812916125000000000E+06  0.812889625000000000E+06  0.812863812500000000E+06  0.812838750000000000E+06
            0.812814125000000000E+06  0.812790187500000000E+06  0.812767062500000000E+06  0.812745125000000000E+06  0.812724750000000000E+06
            0.812705937500000000E+06  0.812688500000000000E+06  0.812672500000000000E+06  0.812657625000000000E+06  0.812643875000000000E+06
            0.812631187500000000E+06  0.812619687500000000E+06  0.812609125000000000E+06  0.812599687500000000E+06  0.812591000000000000E+06
            0.812583000000000000E+06  0.812575500000000000E+06  0.812568687500000000E+06  0.812562187500000000E+06  0.812556187500000000E+06
            0.812550562500000000E+06  0.812545437500000000E+06  0.812540687500000000E+06  0.812536187500000000E+06  0.812531562500000000E+06
            0.812526875000000000E+06  0.812522187500000000E+06  0.812518000000000000E+06  0.812515000000000000E+06  0.812514750000000000E+06
            0.812519312500000000E+06  0.812531375000000000E+06  0.812554687500000000E+06  0.812589625000000000E+06  0.812637500000000000E+06
            0.812702750000000000E+06  0.812787750000000000E+06  0.812894125000000000E+06  0.813016437500000000E+06  0.000000000000000000E+00
            0.000000000000000000E+00  0.000000000000000000E+00  0.000000000000000000E+00  0.000000000000000000E+00
 ETA=   22  0.000000000000000000E+00  0.000000000000000000E+00  0.000000000000000000E+00  0.000000000000000000E+00  0.000000000000000000E+00
            0.000000000000000000E+00  0.000000000000000000E+00  0.000000000000000000E+00  0.000000000000000000E+00  0.000000000000000000E+00
            0.000000000000000000E+00  0.000000000000000000E+00  0.000000000000000000E+00  0.000000000000000000E+00  0.000000000000000000E+00
            0.000000000000000000E+00  0.000000000000000000E+00  0.000000000000000000E+00  0.000000000000000000E+00  0.815644312500000000E+06
            0.815564125000000000E+06  0.815493000000000000E+06  0.815406312500000000E+06  0.815311687500000000E+06  0.815217125000000000E+06
            0.815116250000000000E+06  0.815009062500000000E+06  0.814901000000000000E+06  0.814796250000000000E+06  0.000000000000000000E+00
            0.000000000000000000E+00  0.000000000000000000E+00  0.000000000000000000E+00  0.814298937500000000E+06  0.814207937500000000E+06
            0.814112437500000000E+06  0.814014125000000000E+06  0.813914687500000000E+06  0.813812250000000000E+06  0.813717562500000000E+06
            0.813637500000000000E+06  0.813576687500000000E+06  0.813528000000000000E+06  0.813486312500000000E+06  0.813449062500000000E+06
            0.813415437500000000E+06  0.813385000000000000E+06  0.813357250000000000E+06  0.813331375000000000E+06  0.813306687500000000E+06
            0.813282562500000000E+06  0.813259312500000000E+06  0.813236750000000000E+06  0.813215062500000000E+06  0.813194062500000000E+06
            0.813173875000000000E+06  0.813154500000000000E+06  0.813136250000000000E+06  0.813119250000000000E+06  0.813104000000000000E+06
            0.813090250000000000E+06  0.813077937500000000E+06  0.813066875000000000E+06  0.813057000000000000E+06  0.813048187500000000E+06
            0.813040500000000000E+06  0.813033750000000000E+06  0.813028000000000000E+06  0.813023000000000000E+06  0.813018625000000000E+06
            0.813014687500000000E+06  0.813011062500000000E+06  0.813007687500000000E+06  0.813004500000000000E+06  0.813001312500000000E+06
            0.812998250000000000E+06  0.812995187500000000E+06  0.812992125000000000E+06  0.812988812500000000E+06  0.812985437500000000E+06
            0.812981687500000000E+06  0.812977875000000000E+06  0.812974375000000000E+06  0.812971937500000000E+06  0.812971875000000000E+06
            0.812976562500000000E+06  0.812989625000000000E+06  0.813014937500000000E+06  0.813055187500000000E+06  0.813113000000000000E+06
            0.813192250000000000E+06  0.813297500000000000E+06  0.813430000000000000E+06  0.813582250000000000E+06  0.000000000000000000E+00
            0.000000000000000000E+00  0.000000000000000000E+00  0.000000000000000000E+00  0.000000000000000000E+00
 ETA=   23  0.000000000000000000E+00  0.000000000000000000E+00  0.000000000000000000E+00  0.000000000000000000E+00  0.000000000000000000E+00
            0.000000000000000000E+00  0.000000000000000000E+00  0.000000000000000000E+00  0.000000000000000000E+00  0.000000000000000000E+00
            0.000000000000000000E+00  0.000000000000000000E+00  0.000000000000000000E+00  0.000000000000000000E+00  0.000000000000000000E+00
            0.000000000000000000E+00  0.000000000000000000E+00  0.815887125000000000E+06  0.815813062500000000E+06  0.815731062500000000E+06
            0.815658562500000000E+06  0.815578375000000000E+06  0.815507312500000000E+06  0.815421625000000000E+06  0.815341250000000000E+06
            0.815256562500000000E+06  0.815168812500000000E+06  0.815077687500000000E+06  0.814983687500000000E+06  0.814878375000000000E+06
            0.000000000000000000E+00  0.000000000000000000E+00  0.814596500000000000E+06  0.814491562500000000E+06  0.814402125000000000E+06
            0.814310500000000000E+06  0.814220562500000000E+06  0.814131937500000000E+06  0.814048750000000000E+06  0.813974250000000000E+06
            0.813912187500000000E+06  0.813862500000000000E+06  0.813821875000000000E+06  0.813786937500000000E+06  0.813755812500000000E+06
            0.813727687500000000E+06  0.813702125000000000E+06  0.813678625000000000E+06  0.813656687500000000E+06  0.813635687500000000E+06
            0.813615375000000000E+06  0.813595687500000000E+06  0.813576875000000000E+06  0.813558937500000000E+06  0.813541875000000000E+06
            0.813525750000000000E+06  0.813510687500000000E+06  0.813496750000000000E+06  0.813484250000000000E+06  0.813473312500000000E+06
            0.813463812500000000E+06  0.813455500000000000E+06  0.813448500000000000E+06  0.813442625000000000E+06  0.813437875000000000E+06
            0.813434125000000000E+06  0.813431375000000000E+06  0.813429375000000000E+06  0.813428062500000000E+06  0.813427125000000000E+06
            0.813426687500000000E+06  0.813426312500000000E+06  0.813426062500000000E+06  0.813425687500000000E+06  0.813425125000000000E+06
            0.813424250000000000E+06  0.813423125000000000E+06  0.813421562500000000E+06  0.813419687500000000E+06  0.813417312500000000E+06
            0.813414625000000000E+06  0.813411750000000000E+06  0.813409250000000000E+06  0.813407562500000000E+06  0.813408000000000000E+06
            0.813412750000000000E+06  0.813426062500000000E+06  0.813452187500000000E+06  0.813494937500000000E+06  0.813557062500000000E+06
            0.813641500000000000E+06  0.813753312500000000E+06  0.813897812500000000E+06  0.814071812500000000E+06  0.000000000000000000E+00
            0.000000000000000000E+00  0.000000000000000000E+00  0.000000000000000000E+00  0.000000000000000000E+00
 ETA=   24  0.000000000000000000E+00  0.000000000000000000E+00  0.000000000000000000E+00  0.000000000000000000E+00  0.000000000000000000E+00
            0.000000000000000000E+00  0.000000000000000000E+00  0.000000000000000000E+00  0.000000000000000000E+00  0.000000000000000000E+00
            0.000000000000000000E+00  0.000000000000000000E+00  0.000000000000000000E+00  0.000000000000000000E+00  0.000000000000000000E+00
            0.000000000000000000E+00  0.816007062500000000E+06  0.815945437500000000E+06  0.815883375000000000E+06  0.815821812500000000E+06
            0.815757937500000000E+06  0.815691625000000000E+06  0.815622000000000000E+06  0.815547125000000000E+06  0.815469750000000000E+06
            0.815389562500000000E+06  0.815307250000000000E+06  0.815223375000000000E+06  0.815138375000000000E+06  0.815046812500000000E+06
            0.000000000000000000E+00  0.814866562500000000E+06  0.814775750000000000E+06  0.814684500000000000E+06  0.814599250000000000E+06
            0.814517125000000000E+06  0.814439250000000000E+06  0.814365500000000000E+06  0.814298500000000000E+06  0.814239375000000000E+06
            0.814189750000000000E+06  0.814149000000000000E+06  0.814114937500000000E+06  0.814085500000000000E+06  0.814059250000000000E+06
            0.814035562500000000E+06  0.814013937500000000E+06  0.813994000000000000E+06  0.813975312500000000E+06  0.813957500000000000E+06
            0.813940312500000000E+06  0.813923937500000000E+06  0.813908437500000000E+06  0.813893937500000000E+06  0.813880437500000000E+06
            0.813868000000000000E+06  0.813856625000000000E+06  0.813846500000000000E+06  0.813837687500000000E+06  0.813830375000000000E+06
            0.813824250000000000E+06  0.813819312500000000E+06  0.813815375000000000E+06  0.813812625000000000E+06  0.813810750000000000E+06
            0.813809937500000000E+06  0.813810000000000000E+06  0.813810937500000000E+06  0.813812500000000000E+06  0.813814562500000000E+06
            0.813816812500000000E+06  0.813819187500000000E+06  0.813821375000000000E+06  0.813823375000000000E+06  0.813825000000000000E+06
            0.813826125000000000E+06  0.813826687500000000E+06  0.813826750000000000E+06  0.813826062500000000E+06  0.813824937500000000E+06
            0.813823375000000000E+06  0.813821750000000000E+06  0.813820125000000000E+06  0.813819312500000000E+06  0.813820125000000000E+06
            0.813824750000000000E+06  0.813837312500000000E+06  0.813862625000000000E+06  0.813904562500000000E+06  0.813965750000000000E+06
            0.814048187500000000E+06  0.814156375000000000E+06  0.814297812500000000E+06  0.814476312500000000E+06  0.814547000000000000E+06
            0.000000000000000000E+00  0.000000000000000000E+00  0.000000000000000000E+00  0.000000000000000000E+00
 ETA=   25  0.000000000000000000E+00  0.000000000000000000E+00  0.000000000000000000E+00  0.000000000000000000E+00  0.000000000000000000E+00
            0.000000000000000000E+00  0.000000000000000000E+00  0.000000000000000000E+00  0.000000000000000000E+00  0.000000000000000000E+00
            0.000000000000000000E+00  0.000000000000000000E+00  0.000000000000000000E+00  0.000000000000000000E+00  0.000000000000000000E+00
            0.000000000000000000E+00  0.816104062500000000E+06  0.816047062500000000E+06  0.815989187500000000E+06  0.815930500000000000E+06
            0.815870062500000000E+06  0.815807187500000000E+06  0.815741000000000000E+06  0.815670875000000000E+06  0.815597500000000000E+06
            0.815521500000000000E+06  0.815443500000000000E+06  0.815363875000000000E+06  0.815282562500000000E+06  0.815197500000000000E+06
            0.815118500000000000E+06  0.815031500000000000E+06  0.814952687500000000E+06  0.814875750000000000E+06  0.814801937500000000E+06
            0.814732437500000000E+06  0.814667500000000000E+06  0.814607500000000000E+06  0.814553750000000000E+06  0.814506562500000000E+06
            0.814466500000000000E+06  0.814433062500000000E+06  0.814404625000000000E+06  0.814379687500000000E+06  0.814357375000000000E+06
            0.814337125000000000E+06  0.814318625000000000E+06  0.814301562500000000E+06  0.814285625000000000E+06  0.814270437500000000E+06
            0.814256000000000000E+06  0.814242312500000000E+06  0.814229687500000000E+06  0.814218125000000000E+06  0.814207687500000000E+06
            0.814198187500000000E+06  0.814189812500000000E+06  0.814182625000000000E+06  0.814176750000000000E+06  0.814172125000000000E+06
            0.814168625000000000E+06  0.814166125000000000E+06  0.814164625000000000E+06  0.814164062500000000E+06  0.814164500000000000E+06
            0.814165875000000000E+06  0.814168250000000000E+06  0.814171375000000000E+06  0.814175125000000000E+06  0.814179250000000000E+06
            0.814183625000000000E+06  0.814188000000000000E+06  0.814192250000000000E+06  0.814196062500000000E+06  0.814199500000000000E+06
            0.814202250000000000E+06  0.814204375000000000E+06  0.814205750000000000E+06  0.814206500000000000E+06  0.814206625000000000E+06
            0.814206312500000000E+06  0.814205812500000000E+06  0.814205375000000000E+06  0.814205312500000000E+06  0.814206687500000000E+06
            0.814211312500000000E+06  0.814223187500000000E+06  0.814246937500000000E+06  0.814286437500000000E+06  0.814344000000000000E+06
            0.814420812500000000E+06  0.814519625000000000E+06  0.814646187500000000E+06  0.814805750000000000E+06  0.814951062500000000E+06
            0.000000000000000000E+00  0.000000000000000000E+00  0.000000000000000000E+00  0.000000000000000000E+00
 ETA=   26  0.000000000000000000E+00  0.000000000000000000E+00  0.000000000000000000E+00  0.000000000000000000E+00  0.000000000000000000E+00
            0.000000000000000000E+00  0.000000000000000000E+00  0.000000000000000000E+00  0.000000000000000000E+00  0.000000000000000000E+00
            0.000000000000000000E+00  0.000000000000000000E+00  0.000000000000000000E+00  0.000000000000000000E+00  0.816322250000000000E+06
            0.816268687500000000E+06  0.816198250000000000E+06  0.816146187500000000E+06  0.816093000000000000E+06  0.816038437500000000E+06
            0.815981937500000000E+06  0.815923062500000000E+06  0.815861062500000000E+06  0.815795125000000000E+06  0.815726062500000000E+06
            0.815654750000000000E+06  0.815582125000000000E+06  0.815508562500000000E+06  0.815434250000000000E+06  0.815359125000000000E+06
            0.815285625000000000E+06  0.815211812500000000E+06  0.815141812500000000E+06  0.815075250000000000E+06  0.815012625000000000E+06
            0.814954750000000000E+06  0.814901500000000000E+06  0.814852937500000000E+06  0.814809625000000000E+06  0.814771750000000000E+06
            0.814739312500000000E+06  0.814711750000000000E+06  0.814687937500000000E+06  0.814666687500000000E+06  0.814647500000000000E+06
            0.814630062500000000E+06  0.814614062500000000E+06  0.814599312500000000E+06  0.814585500000000000E+06  0.814572562500000000E+06
            0.814560250000000000E+06  0.814549000000000000E+06  0.814538750000000000E+06  0.814529562500000000E+06  0.814521500000000000E+06
            0.814514437500000000E+06  0.814508500000000000E+06  0.814503687500000000E+06  0.814500000000000000E+06  0.814497375000000000E+06
            0.814495687500000000E+06  0.814494937500000000E+06  0.814494937500000000E+06  0.814495812500000000E+06  0.814497562500000000E+06
            0.814500312500000000E+06  0.814504000000000000E+06  0.814508625000000000E+06  0.814513875000000000E+06  0.814519562500000000E+06
            0.814525375000000000E+06  0.814531250000000000E+06  0.814536937500000000E+06  0.814542375000000000E+06  0.814547250000000000E+06
            0.814551500000000000E+06  0.814555000000000000E+06  0.814557750000000000E+06  0.814559687500000000E+06  0.814561062500000000E+06
            0.814561937500000000E+06  0.814562687500000000E+06  0.814563500000000000E+06  0.814564687500000000E+06  0.814566875000000000E+06
            0.814572062500000000E+06  0.814583687500000000E+06  0.814606375000000000E+06  0.814643312500000000E+06  0.814696812500000000E+06
            0.814767312500000000E+06  0.814856437500000000E+06  0.814967125000000000E+06  0.815104187500000000E+06  0.815276375000000000E+06
            0.000000000000000000E+00  0.000000000000000000E+00  0.000000000000000000E+00  0.000000000000000000E+00
 ETA=   27  0.000000000000000000E+00  0.000000000000000000E+00  0.000000000000000000E+00  0.000000000000000000E+00  0.000000000000000000E+00
            0.000000000000000000E+00  0.000000000000000000E+00  0.000000000000000000E+00  0.000000000000000000E+00  0.000000000000000000E+00
            0.000000000000000000E+00  0.816558687500000000E+06  0.816492500000000000E+06  0.816438375000000000E+06  0.816390562500000000E+06
            0.816343187500000000E+06  0.816295375000000000E+06  0.816246937500000000E+06  0.816197437500000000E+06  0.816146750000000000E+06
            0.816094125000000000E+06  0.816039437500000000E+06  0.815981687500000000E+06  0.815920062500000000E+06  0.815855687500000000E+06
            0.815789812500000000E+06  0.815723375000000000E+06  0.815656625000000000E+06  0.815589750000000000E+06  0.815523062500000000E+06
            0.815457562500000000E+06  0.815394187500000000E+06  0.815334437500000000E+06  0.815278687500000000E+06  0.815227000000000000E+06
            0.815179625000000000E+06  0.815136312500000000E+06  0.815097062500000000E+06  0.815062125000000000E+06  0.815031500000000000E+06
            0.815004937500000000E+06  0.814982000000000000E+06  0.814961687500000000E+06  0.814943437500000000E+06  0.814926812500000000E+06
            0.814911625000000000E+06  0.814897625000000000E+06  0.814884625000000000E+06  0.814872625000000000E+06  0.814861437500000000E+06
            0.814851125000000000E+06  0.814841687500000000E+06  0.814833375000000000E+06  0.814826125000000000E+06  0.814819937500000000E+06
            0.814814687500000000E+06  0.814810500000000000E+06  0.814807312500000000E+06  0.814805250000000000E+06  0.814804062500000000E+06
            0.814803687500000000E+06  0.814804000000000000E+06  0.814805062500000000E+06  0.814806750000000000E+06  0.814809312500000000E+06
            0.814812750000000000E+06  0.814817187500000000E+06  0.814822437500000000E+06  0.814828562500000000E+06  0.814835125000000000E+06
            0.814841937500000000E+06  0.814848687500000000E+06  0.814855437500000000E+06  0.814861875000000000E+06  0.814868000000000000E+06
            0.814873437500000000E+06  0.814878250000000000E+06  0.814882187500000000E+06  0.814885375000000000E+06  0.814888000000000000E+06
            0.814890312500000000E+06  0.814892437500000000E+06  0.814894625000000000E+06  0.814897062500000000E+06  0.814900437500000000E+06
            0.814906437500000000E+06  0.814918312500000000E+06  0.814939937500000000E+06  0.814974500000000000E+06  0.815023750000000000E+06
            0.815088125000000000E+06  0.815168562500000000E+06  0.815266562500000000E+06  0.815385312500000000E+06  0.815531250000000000E+06
            0.000000000000000000E+00  0.000000000000000000E+00  0.000000000000000000E+00  0.000000000000000000E+00
 ETA=   28  0.000000000000000000E+00  0.000000000000000000E+00  0.000000000000000000E+00  0.000000000000000000E+00  0.000000000000000000E+00
            0.000000000000000000E+00  0.000000000000000000E+00  0.000000000000000000E+00  0.000000000000000000E+00  0.000000000000000000E+00
            0.816640687500000000E+06  0.816612250000000000E+06  0.816569000000000000E+06  0.816525375000000000E+06  0.816481625000000000E+06
            0.816437937500000000E+06  0.816393687500000000E+06  0.816348625000000000E+06  0.816302562500000000E+06  0.816255500000000000E+06
            0.816206812500000000E+06  0.816156250000000000E+06  0.816102937500000000E+06  0.816046125000000000E+06  0.815987000000000000E+06
            0.815927000000000000E+06  0.815867187500000000E+06  0.815807687500000000E+06  0.815748625000000000E+06  0.815690312500000000E+06
            0.815633562500000000E+06  0.815579687500000000E+06  0.815530000000000000E+06  0.815484312500000000E+06  0.815442250000000000E+06
            0.815403750000000000E+06  0.815368500000000000E+06  0.815336687500000000E+06  0.815308250000000000E+06  0.815283125000000000E+06
            0.815260937500000000E+06  0.815241312500000000E+06  0.815223562500000000E+06  0.815207375000000000E+06  0.815192562500000000E+06
            0.815179062500000000E+06  0.815166625000000000E+06  0.815155125000000000E+06  0.815144437500000000E+06  0.815134562500000000E+06
            0.815125562500000000E+06  0.815117562500000000E+06  0.815110625000000000E+06  0.815104812500000000E+06  0.815100000000000000E+06
            0.815096187500000000E+06  0.815093250000000000E+06  0.815091312500000000E+06  0.815090250000000000E+06  0.815090000000000000E+06
            0.815090375000000000E+06  0.815091437500000000E+06  0.815093000000000000E+06  0.815095250000000000E+06  0.815098125000000000E+06
            0.815101875000000000E+06  0.815106500000000000E+06  0.815112062500000000E+06  0.815118437500000000E+06  0.815125375000000000E+06
            0.815132437500000000E+06  0.815139750000000000E+06  0.815147125000000000E+06  0.815154437500000000E+06  0.815161437500000000E+06
            0.815168062500000000E+06  0.815173875000000000E+06  0.815179062500000000E+06  0.815183500000000000E+06  0.815187500000000000E+06
            0.815191062500000000E+06  0.815194687500000000E+06  0.815198312500000000E+06  0.815202250000000000E+06  0.815207000000000000E+06
            0.815214062500000000E+06  0.815226312500000000E+06  0.815247187500000000E+06  0.815279125000000000E+06  0.815324125000000000E+06
            0.815382500000000000E+06  0.815455187500000000E+06  0.815542687500000000E+06  0.815647750000000000E+06  0.815770937500000000E+06
            0.000000000000000000E+00  0.000000000000000000E+00  0.000000000000000000E+00  0.000000000000000000E+00
 ETA=   29  0.000000000000000000E+00  0.000000000000000000E+00  0.000000000000000000E+00  0.000000000000000000E+00  0.000000000000000000E+00
            0.000000000000000000E+00  0.000000000000000000E+00  0.000000000000000000E+00  0.000000000000000000E+00  0.000000000000000000E+00
            0.816758875000000000E+06  0.816700875000000000E+06  0.816659812500000000E+06  0.816618687500000000E+06  0.816577562500000000E+06
            0.816536500000000000E+06  0.816494875000000000E+06  0.816452500000000000E+06  0.816409312500000000E+06  0.816365500000000000E+06
            0.816320562500000000E+06  0.816274125000000000E+06  0.816225375000000000E+06  0.816173500000000000E+06  0.816119875000000000E+06
            0.816066187500000000E+06  0.816013312500000000E+06  0.815961375000000000E+06  0.815910250000000000E+06  0.815860125000000000E+06
            0.815811875000000000E+06  0.815766750000000000E+06  0.815725875000000000E+06  0.815688750000000000E+06  0.815654750000000000E+06
            0.815623437500000000E+06  0.815594562500000000E+06  0.815568250000000000E+06  0.815544625000000000E+06  0.815523437500000000E+06
            0.815504375000000000E+06  0.815487062500000000E+06  0.815471125000000000E+06  0.815456500000000000E+06  0.815443000000000000E+06
            0.815430562500000000E+06  0.815419125000000000E+06  0.815408500000000000E+06  0.815398812500000000E+06  0.815389875000000000E+06
            0.815381875000000000E+06  0.815374812500000000E+06  0.815368937500000000E+06  0.815364000000000000E+06  0.815360187500000000E+06
[...]
            0.000000000000000000E+00  0.000000000000000000E+00  0.000000000000000000E+00  0.000000000000000000E+00  0.000000000000000000E+00
            0.000000000000000000E+00  0.000000000000000000E+00  0.000000000000000000E+00  0.000000000000000000E+00  0.000000000000000000E+00
            0.000000000000000000E+00  0.000000000000000000E+00  0.000000000000000000E+00  0.000000000000000000E+00
 ETA=   67  0.000000000000000000E+00  0.000000000000000000E+00  0.000000000000000000E+00  0.000000000000000000E+00  0.000000000000000000E+00
            0.000000000000000000E+00  0.000000000000000000E+00  0.000000000000000000E+00  0.000000000000000000E+00  0.000000000000000000E+00
            0.000000000000000000E+00  0.000000000000000000E+00  0.000000000000000000E+00  0.000000000000000000E+00  0.000000000000000000E+00
            0.000000000000000000E+00  0.000000000000000000E+00  0.000000000000000000E+00  0.000000000000000000E+00  0.000000000000000000E+00
            0.824969625000000000E+06  0.824949312500000000E+06  0.824923125000000000E+06  0.824891500000000000E+06  0.000000000000000000E+00
            0.000000000000000000E+00  0.000000000000000000E+00  0.000000000000000000E+00  0.000000000000000000E+00  0.000000000000000000E+00
            0.000000000000000000E+00  0.000000000000000000E+00  0.000000000000000000E+00  0.000000000000000000E+00  0.000000000000000000E+00
            0.000000000000000000E+00  0.000000000000000000E+00  0.000000000000000000E+00  0.000000000000000000E+00  0.000000000000000000E+00
            0.000000000000000000E+00  0.000000000000000000E+00  0.000000000000000000E+00  0.000000000000000000E+00  0.000000000000000000E+00
            0.824014062500000000E+06  0.823983562500000000E+06  0.823925937500000000E+06  0.823866125000000000E+06  0.823808812500000000E+06
            0.823754187500000000E+06  0.823702125000000000E+06  0.823652500000000000E+06  0.823605375000000000E+06  0.823560062500000000E+06
            0.823516562500000000E+06  0.823474562500000000E+06  0.823434375000000000E+06  0.823396375000000000E+06  0.823360562500000000E+06
            0.823325812500000000E+06  0.823290500000000000E+06  0.823253250000000000E+06  0.823213250000000000E+06  0.823169812500000000E+06
            0.823121937500000000E+06  0.823067750000000000E+06  0.823004562500000000E+06  0.822930562500000000E+06  0.822847937500000000E+06
            0.822760000000000000E+06  0.822669125000000000E+06  0.822576437500000000E+06  0.822482500000000000E+06  0.822387937500000000E+06
            0.822295437500000000E+06  0.822207625000000000E+06  0.822126750000000000E+06  0.822050875000000000E+06  0.821977812500000000E+06
            0.821905437500000000E+06  0.821815625000000000E+06  0.000000000000000000E+00  0.000000000000000000E+00  0.000000000000000000E+00
            0.000000000000000000E+00  0.000000000000000000E+00  0.000000000000000000E+00  0.000000000000000000E+00  0.000000000000000000E+00
            0.000000000000000000E+00  0.000000000000000000E+00  0.000000000000000000E+00  0.000000000000000000E+00  0.000000000000000000E+00
            0.000000000000000000E+00  0.000000000000000000E+00  0.000000000000000000E+00  0.000000000000000000E+00
 ETA=   68  0.000000000000000000E+00  0.000000000000000000E+00  0.000000000000000000E+00  0.000000000000000000E+00  0.000000000000000000E+00
            0.000000000000000000E+00  0.000000000000000000E+00  0.000000000000000000E+00  0.000000000000000000E+00  0.000000000000000000E+00
            0.000000000000000000E+00  0.000000000000000000E+00  0.000000000000000000E+00  0.000000000000000000E+00  0.000000000000000000E+00
            0.000000000000000000E+00  0.000000000000000000E+00  0.000000000000000000E+00  0.000000000000000000E+00  0.000000000000000000E+00
            0.825053250000000000E+06  0.825037500000000000E+06  0.825023437500000000E+06  0.825008937500000000E+06  0.000000000000000000E+00
            0.000000000000000000E+00  0.000000000000000000E+00  0.000000000000000000E+00  0.000000000000000000E+00  0.000000000000000000E+00
            0.000000000000000000E+00  0.000000000000000000E+00  0.000000000000000000E+00  0.000000000000000000E+00  0.000000000000000000E+00
            0.000000000000000000E+00  0.000000000000000000E+00  0.000000000000000000E+00  0.000000000000000000E+00  0.000000000000000000E+00
            0.000000000000000000E+00  0.000000000000000000E+00  0.000000000000000000E+00  0.000000000000000000E+00  0.000000000000000000E+00
            0.000000000000000000E+00  0.824036625000000000E+06  0.824022812500000000E+06  0.823956562500000000E+06  0.823897375000000000E+06
            0.823841875000000000E+06  0.823789500000000000E+06  0.823739937500000000E+06  0.823693375000000000E+06  0.823648812500000000E+06
            0.823605937500000000E+06  0.823564250000000000E+06  0.823524125000000000E+06  0.823485750000000000E+06  0.823448625000000000E+06
            0.823412187500000000E+06  0.823374937500000000E+06  0.823335500000000000E+06  0.823293250000000000E+06  0.823247687500000000E+06
            0.823198187500000000E+06  0.823142562500000000E+06  0.823078250000000000E+06  0.823003937500000000E+06  0.822921437500000000E+06
            0.822833875000000000E+06  0.822743750000000000E+06  0.822651937500000000E+06  0.822558875000000000E+06  0.822464937500000000E+06
            0.822372687500000000E+06  0.822284750000000000E+06  0.822202875000000000E+06  0.822125500000000000E+06  0.822050500000000000E+06
            0.821978312500000000E+06  0.000000000000000000E+00  0.000000000000000000E+00  0.000000000000000000E+00  0.000000000000000000E+00
            0.000000000000000000E+00  0.000000000000000000E+00  0.000000000000000000E+00  0.000000000000000000E+00  0.000000000000000000E+00
            0.000000000000000000E+00  0.000000000000000000E+00  0.000000000000000000E+00  0.000000000000000000E+00  0.000000000000000000E+00
            0.000000000000000000E+00  0.000000000000000000E+00  0.000000000000000000E+00  0.000000000000000000E+00
 ETA=   69  0.000000000000000000E+00  0.000000000000000000E+00  0.000000000000000000E+00  0.000000000000000000E+00  0.000000000000000000E+00
            0.000000000000000000E+00  0.000000000000000000E+00  0.000000000000000000E+00  0.000000000000000000E+00  0.000000000000000000E+00
            0.000000000000000000E+00  0.000000000000000000E+00  0.000000000000000000E+00  0.000000000000000000E+00  0.000000000000000000E+00
            0.000000000000000000E+00  0.000000000000000000E+00  0.000000000000000000E+00  0.000000000000000000E+00  0.000000000000000000E+00
            0.825169750000000000E+06  0.825163687500000000E+06  0.825155875000000000E+06  0.825146562500000000E+06  0.000000000000000000E+00
            0.000000000000000000E+00  0.000000000000000000E+00  0.000000000000000000E+00  0.000000000000000000E+00  0.000000000000000000E+00
            0.000000000000000000E+00  0.000000000000000000E+00  0.000000000000000000E+00  0.000000000000000000E+00  0.000000000000000000E+00
            0.000000000000000000E+00  0.000000000000000000E+00  0.000000000000000000E+00  0.000000000000000000E+00  0.000000000000000000E+00
            0.000000000000000000E+00  0.000000000000000000E+00  0.000000000000000000E+00  0.000000000000000000E+00  0.000000000000000000E+00
            0.000000000000000000E+00  0.000000000000000000E+00  0.000000000000000000E+00  0.824055937500000000E+06  0.823995187500000000E+06
            0.823938687500000000E+06  0.823885750000000000E+06  0.823835812500000000E+06  0.823789125000000000E+06  0.823744375000000000E+06
            0.823701437500000000E+06  0.823659437500000000E+06  0.823618812500000000E+06  0.823579500000000000E+06  0.823540750000000000E+06
            0.823502312500000000E+06  0.823462750000000000E+06  0.823420875000000000E+06  0.823376187500000000E+06  0.823328312500000000E+06
            0.823276937500000000E+06  0.823219687500000000E+06  0.823154250000000000E+06  0.823079625000000000E+06  0.822997250000000000E+06
            0.822910125000000000E+06  0.822820625000000000E+06  0.822729562500000000E+06  0.822637312500000000E+06  0.822544062500000000E+06
            0.822452250000000000E+06  0.822364250000000000E+06  0.822281500000000000E+06  0.822202687500000000E+06  0.822166812500000000E+06
            0.000000000000000000E+00  0.000000000000000000E+00  0.000000000000000000E+00  0.000000000000000000E+00  0.000000000000000000E+00
            0.000000000000000000E+00  0.000000000000000000E+00  0.000000000000000000E+00  0.000000000000000000E+00  0.000000000000000000E+00
            0.000000000000000000E+00  0.000000000000000000E+00  0.000000000000000000E+00  0.000000000000000000E+00  0.000000000000000000E+00
            0.000000000000000000E+00  0.000000000000000000E+00  0.000000000000000000E+00  0.000000000000000000E+00
 ETA=   70  0.000000000000000000E+00  0.000000000000000000E+00  0.000000000000000000E+00  0.000000000000000000E+00  0.000000000000000000E+00
            0.000000000000000000E+00  0.000000000000000000E+00  0.000000000000000000E+00  0.000000000000000000E+00  0.000000000000000000E+00
            0.000000000000000000E+00  0.000000000000000000E+00  0.000000000000000000E+00  0.000000000000000000E+00  0.000000000000000000E+00
            0.000000000000000000E+00  0.000000000000000000E+00  0.000000000000000000E+00  0.000000000000000000E+00  0.000000000000000000E+00
            0.000000000000000000E+00  0.825261375000000000E+06  0.825260500000000000E+06  0.825259562500000000E+06  0.000000000000000000E+00
            0.000000000000000000E+00  0.000000000000000000E+00  0.000000000000000000E+00  0.000000000000000000E+00  0.000000000000000000E+00
            0.000000000000000000E+00  0.000000000000000000E+00  0.000000000000000000E+00  0.000000000000000000E+00  0.000000000000000000E+00
            0.000000000000000000E+00  0.000000000000000000E+00  0.000000000000000000E+00  0.000000000000000000E+00  0.000000000000000000E+00
            0.000000000000000000E+00  0.000000000000000000E+00  0.000000000000000000E+00  0.000000000000000000E+00  0.000000000000000000E+00
            0.000000000000000000E+00  0.000000000000000000E+00  0.000000000000000000E+00  0.824166625000000000E+06  0.824103812500000000E+06
            0.824045875000000000E+06  0.823991937500000000E+06  0.823941000000000000E+06  0.823892937500000000E+06  0.823846750000000000E+06
            0.823802250000000000E+06  0.823758687500000000E+06  0.823716375000000000E+06  0.823675437500000000E+06  0.823635062500000000E+06
            0.823595000000000000E+06  0.823553812500000000E+06  0.823510187500000000E+06  0.823463625000000000E+06  0.823413875000000000E+06
            0.823360687500000000E+06  0.823301875000000000E+06  0.823235187500000000E+06  0.823159812500000000E+06  0.823077062500000000E+06
            0.822989750000000000E+06  0.822900250000000000E+06  0.822809250000000000E+06  0.822717250000000000E+06  0.822624375000000000E+06
            0.822532812500000000E+06  0.822444437500000000E+06  0.822381062500000000E+06  0.000000000000000000E+00  0.000000000000000000E+00
            0.000000000000000000E+00  0.000000000000000000E+00  0.000000000000000000E+00  0.000000000000000000E+00  0.000000000000000000E+00
            0.000000000000000000E+00  0.000000000000000000E+00  0.000000000000000000E+00  0.000000000000000000E+00  0.000000000000000000E+00
            0.000000000000000000E+00  0.000000000000000000E+00  0.000000000000000000E+00  0.000000000000000000E+00  0.000000000000000000E+00
            0.000000000000000000E+00  0.000000000000000000E+00  0.000000000000000000E+00  0.000000000000000000E+00
 ETA=   71  0.000000000000000000E+00  0.000000000000000000E+00  0.000000000000000000E+00  0.000000000000000000E+00  0.000000000000000000E+00
            0.000000000000000000E+00  0.000000000000000000E+00  0.000000000000000000E+00  0.000000000000000000E+00  0.000000000000000000E+00
            0.000000000000000000E+00  0.000000000000000000E+00  0.000000000000000000E+00  0.000000000000000000E+00  0.000000000000000000E+00
            0.000000000000000000E+00  0.000000000000000000E+00  0.000000000000000000E+00  0.000000000000000000E+00  0.000000000000000000E+00
            0.000000000000000000E+00  0.000000000000000000E+00  0.000000000000000000E+00  0.000000000000000000E+00  0.000000000000000000E+00
            0.000000000000000000E+00  0.000000000000000000E+00  0.000000000000000000E+00  0.000000000000000000E+00  0.000000000000000000E+00
            0.000000000000000000E+00  0.000000000000000000E+00  0.000000000000000000E+00  0.000000000000000000E+00  0.000000000000000000E+00
            0.000000000000000000E+00  0.000000000000000000E+00  0.000000000000000000E+00  0.000000000000000000E+00  0.000000000000000000E+00
            0.000000000000000000E+00  0.000000000000000000E+00  0.000000000000000000E+00  0.000000000000000000E+00  0.000000000000000000E+00
            0.000000000000000000E+00  0.000000000000000000E+00  0.000000000000000000E+00  0.824252625000000000E+06  0.824221375000000000E+06
            0.824162687500000000E+06  0.824108000000000000E+06  0.824055625000000000E+06  0.824005937500000000E+06  0.823957125000000000E+06
            0.823909562500000000E+06  0.823862875000000000E+06  0.823817875000000000E+06  0.823774625000000000E+06  0.823732687500000000E+06
            0.823691625000000000E+06  0.823649750000000000E+06  0.823605125000000000E+06  0.823557375000000000E+06  0.823506375000000000E+06
            0.823452062500000000E+06  0.823391812500000000E+06  0.823323375000000000E+06  0.823246562500000000E+06  0.823162312500000000E+06
            0.823073375000000000E+06  0.822982125000000000E+06  0.822889875000000000E+06  0.822797937500000000E+06  0.822704437500000000E+06
            0.822612625000000000E+06  0.822523812500000000E+06  0.000000000000000000E+00  0.000000000000000000E+00  0.000000000000000000E+00
            0.000000000000000000E+00  0.000000000000000000E+00  0.000000000000000000E+00  0.000000000000000000E+00  0.000000000000000000E+00
            0.000000000000000000E+00  0.000000000000000000E+00  0.000000000000000000E+00  0.000000000000000000E+00  0.000000000000000000E+00
            0.000000000000000000E+00  0.000000000000000000E+00  0.000000000000000000E+00  0.000000000000000000E+00  0.000000000000000000E+00
            0.000000000000000000E+00  0.000000000000000000E+00  0.000000000000000000E+00  0.000000000000000000E+00
 ETA=   72  0.000000000000000000E+00  0.000000000000000000E+00  0.000000000000000000E+00  0.000000000000000000E+00  0.000000000000000000E+00
            0.000000000000000000E+00  0.000000000000000000E+00  0.000000000000000000E+00  0.000000000000000000E+00  0.000000000000000000E+00
            0.000000000000000000E+00  0.000000000000000000E+00  0.000000000000000000E+00  0.000000000000000000E+00  0.000000000000000000E+00
            0.000000000000000000E+00  0.000000000000000000E+00  0.000000000000000000E+00  0.000000000000000000E+00  0.000000000000000000E+00
            0.000000000000000000E+00  0.000000000000000000E+00  0.000000000000000000E+00  0.000000000000000000E+00  0.000000000000000000E+00
            0.000000000000000000E+00  0.000000000000000000E+00  0.000000000000000000E+00  0.000000000000000000E+00  0.000000000000000000E+00
            0.000000000000000000E+00  0.000000000000000000E+00  0.000000000000000000E+00  0.000000000000000000E+00  0.000000000000000000E+00
            0.000000000000000000E+00  0.000000000000000000E+00  0.000000000000000000E+00  0.000000000000000000E+00  0.000000000000000000E+00
            0.000000000000000000E+00  0.000000000000000000E+00  0.000000000000000000E+00  0.000000000000000000E+00  0.000000000000000000E+00
            0.000000000000000000E+00  0.000000000000000000E+00  0.000000000000000000E+00  0.000000000000000000E+00  0.824341187500000000E+06
            0.824290687500000000E+06  0.824235437500000000E+06  0.824181062500000000E+06  0.824129875000000000E+06  0.824076750000000000E+06
            0.824024437500000000E+06  0.823972625000000000E+06  0.823922687500000000E+06  0.823876812500000000E+06  0.823832750000000000E+06
            0.823790750000000000E+06  0.823749750000000000E+06  0.823705187500000000E+06  0.823657125000000000E+06  0.823605812500000000E+06
            0.823551625000000000E+06  0.823489312500000000E+06  0.823418187500000000E+06  0.823339312500000000E+06  0.823252062500000000E+06
            0.823159750000000000E+06  0.823064437500000000E+06  0.822969500000000000E+06  0.822879187500000000E+06  0.822782750000000000E+06
            0.822691687500000000E+06  0.000000000000000000E+00  0.000000000000000000E+00  0.000000000000000000E+00  0.000000000000000000E+00
            0.000000000000000000E+00  0.000000000000000000E+00  0.000000000000000000E+00  0.000000000000000000E+00  0.000000000000000000E+00
            0.000000000000000000E+00  0.000000000000000000E+00  0.000000000000000000E+00  0.000000000000000000E+00  0.000000000000000000E+00
            0.000000000000000000E+00  0.000000000000000000E+00  0.000000000000000000E+00  0.000000000000000000E+00  0.000000000000000000E+00
            0.000000000000000000E+00  0.000000000000000000E+00  0.000000000000000000E+00  0.000000000000000000E+00
 ETA=   73  0.000000000000000000E+00  0.000000000000000000E+00  0.000000000000000000E+00  0.000000000000000000E+00  0.000000000000000000E+00
            0.000000000000000000E+00  0.000000000000000000E+00  0.000000000000000000E+00  0.000000000000000000E+00  0.000000000000000000E+00
            0.000000000000000000E+00  0.000000000000000000E+00  0.000000000000000000E+00  0.000000000000000000E+00  0.000000000000000000E+00
            0.000000000000000000E+00  0.000000000000000000E+00  0.000000000000000000E+00  0.000000000000000000E+00  0.000000000000000000E+00
            0.000000000000000000E+00  0.000000000000000000E+00  0.000000000000000000E+00  0.000000000000000000E+00  0.000000000000000000E+00
            0.000000000000000000E+00  0.000000000000000000E+00  0.000000000000000000E+00  0.000000000000000000E+00  0.000000000000000000E+00
            0.000000000000000000E+00  0.000000000000000000E+00  0.000000000000000000E+00  0.000000000000000000E+00  0.000000000000000000E+00
            0.000000000000000000E+00  0.000000000000000000E+00  0.000000000000000000E+00  0.000000000000000000E+00  0.000000000000000000E+00
            0.000000000000000000E+00  0.000000000000000000E+00  0.000000000000000000E+00  0.000000000000000000E+00  0.000000000000000000E+00
            0.000000000000000000E+00  0.000000000000000000E+00  0.000000000000000000E+00  0.000000000000000000E+00  0.000000000000000000E+00
            0.824429812500000000E+06  0.824370625000000000E+06  0.824318750000000000E+06  0.824265812500000000E+06  0.824207187500000000E+06
            0.824150125000000000E+06  0.824090250000000000E+06  0.824037500000000000E+06  0.823985437500000000E+06  0.823938187500000000E+06
            0.823895812500000000E+06  0.823854062500000000E+06  0.823808875000000000E+06  0.823763375000000000E+06  0.823713875000000000E+06
            0.823657187500000000E+06  0.823594500000000000E+06  0.823518875000000000E+06  0.823437937500000000E+06  0.823345062500000000E+06
            0.823251312500000000E+06  0.823150375000000000E+06  0.000000000000000000E+00  0.000000000000000000E+00  0.000000000000000000E+00
            0.000000000000000000E+00  0.000000000000000000E+00  0.000000000000000000E+00  0.000000000000000000E+00  0.000000000000000000E+00
            0.000000000000000000E+00  0.000000000000000000E+00  0.000000000000000000E+00  0.000000000000000000E+00  0.000000000000000000E+00
            0.000000000000000000E+00  0.000000000000000000E+00  0.000000000000000000E+00  0.000000000000000000E+00  0.000000000000000000E+00
            0.000000000000000000E+00  0.000000000000000000E+00  0.000000000000000000E+00  0.000000000000000000E+00  0.000000000000000000E+00
            0.000000000000000000E+00  0.000000000000000000E+00  0.000000000000000000E+00  0.000000000000000000E+00
