* WL | Delft Hydraulics, Delft3D-RGFGRIDVersion 4.12.02.00Sep 2004
* File creation date: 09:42:07, 29-09-2004
Coordinate System = Cartesian
Missing Value     =          0.000
      14      21
 0.000000000000000000E+00 0.000000000000000000E+00 0.000000000000000000E+00
 ETA=    1  0.000000000000000000E+00  0.000000000000000000E+00  0.000000000000000000E+00  0.000000000000000000E+00  0.000000000000000000E+00
            0.000000000000000000E+00  0.000000000000000000E+00  0.000000000000000000E+00  0.000000000000000000E+00  0.000000000000000000E+00
            0.000000000000000000E+00  0.213813187500000000E+06  0.214686000000000000E+06  0.214891687500000000E+06
 ETA=    2  0.000000000000000000E+00  0.000000000000000000E+00  0.000000000000000000E+00  0.000000000000000000E+00  0.000000000000000000E+00
            0.000000000000000000E+00  0.000000000000000000E+00  0.000000000000000000E+00  0.000000000000000000E+00  0.000000000000000000E+00
            0.210330828125000000E+06  0.211797953125000000E+06  0.212459953125000000E+06  0.212436890625000000E+06
 ETA=    3  0.185535359375000000E+06  0.186353015625000000E+06  0.187959234375000000E+06  0.190193031250000000E+06  0.000000000000000000E+00
            0.000000000000000000E+00  0.000000000000000000E+00  0.000000000000000000E+00  0.000000000000000000E+00  0.000000000000000000E+00
            0.208578703125000000E+06  0.209800062500000000E+06  0.210311500000000000E+06  0.210230015625000000E+06
 ETA=    4  0.187291078125000000E+06  0.187995906250000000E+06  0.189371156250000000E+06  0.191294562500000000E+06  0.193560671875000000E+06
            0.000000000000000000E+00  0.000000000000000000E+00  0.000000000000000000E+00  0.000000000000000000E+00  0.205349453125000000E+06
            0.206993328125000000E+06  0.208046656250000000E+06  0.208479406250000000E+06  0.208406296875000000E+06
 ETA=    5  0.188800296875000000E+06  0.189401906250000000E+06  0.190582562500000000E+06  0.192238843750000000E+06  0.194195015625000000E+06
            0.196239187500000000E+06  0.198308937500000000E+06  0.200404968750000000E+06  0.202400531250000000E+06  0.204195500000000000E+06
            0.205653109375000000E+06  0.206586859375000000E+06  0.206986343750000000E+06  0.206943250000000000E+06
 ETA=    6  0.190103078125000000E+06  0.190612640625000000E+06  0.191622500000000000E+06  0.193045828125000000E+06  0.194717421875000000E+06
            0.196462890625000000E+06  0.198210359375000000E+06  0.199978593750000000E+06  0.201671890625000000E+06  0.203225640625000000E+06
            0.204510968750000000E+06  0.205360640625000000E+06  0.205752140625000000E+06  0.205751296875000000E+06
 ETA=    7  0.191192843750000000E+06  0.191635500000000000E+06  0.192508734375000000E+06  0.193732093750000000E+06  0.195155312500000000E+06
            0.196637281250000000E+06  0.198109859375000000E+06  0.199598906250000000E+06  0.201035593750000000E+06  0.202380390625000000E+06
            0.203520125000000000E+06  0.204310984375000000E+06  0.204717687500000000E+06  0.204789921875000000E+06
 ETA=    8  0.192051875000000000E+06  0.192477000000000000E+06  0.193251390625000000E+06  0.194303671875000000E+06  0.195510250000000000E+06
            0.196761046875000000E+06  0.197999125000000000E+06  0.199249640625000000E+06  0.200465171875000000E+06  0.201626015625000000E+06
            0.202641578125000000E+06  0.203395265625000000E+06  0.203846750000000000E+06  0.204040890625000000E+06
 ETA=    9  0.192609453125000000E+06  0.193074953125000000E+06  0.193792796875000000E+06  0.194713484375000000E+06  0.195747906250000000E+06
            0.196813109375000000E+06  0.197865234375000000E+06  0.198927156250000000E+06  0.199966921875000000E+06  0.200979390625000000E+06
            0.201896921875000000E+06  0.202629718750000000E+06  0.203140000000000000E+06  0.203467890625000000E+06
 ETA=   10  0.192882718750000000E+06  0.193396484375000000E+06  0.194077140625000000E+06  0.194904812500000000E+06  0.195820687500000000E+06
            0.196761015625000000E+06  0.197691593750000000E+06  0.198633062500000000E+06  0.199561750000000000E+06  0.200480015625000000E+06
            0.201337390625000000E+06  0.202061437500000000E+06  0.202615203125000000E+06  0.203026406250000000E+06
 ETA=   11  0.192927390625000000E+06  0.193429843750000000E+06  0.194073140625000000E+06  0.194847093750000000E+06  0.195705890625000000E+06
            0.196593812500000000E+06  0.197479562500000000E+06  0.198382109375000000E+06  0.199279765625000000E+06  0.200176468750000000E+06
            0.201027656250000000E+06  0.201765328125000000E+06  0.202350062500000000E+06  0.202805531250000000E+06
 ETA=   12  0.192731843750000000E+06  0.193174421875000000E+06  0.193780593750000000E+06  0.194540203125000000E+06  0.195402140625000000E+06
            0.196307921875000000E+06  0.197222390625000000E+06  0.198163921875000000E+06  0.199109375000000000E+06  0.200061250000000000E+06
            0.200967593750000000E+06  0.201752125000000000E+06  0.202366015625000000E+06  0.202836468750000000E+06
 ETA=   13  0.192344500000000000E+06  0.192658984375000000E+06  0.193214937500000000E+06  0.193986093750000000E+06  0.194902140625000000E+06
            0.195891546875000000E+06  0.196907968750000000E+06  0.197969968750000000E+06  0.199047703125000000E+06  0.200136140625000000E+06
            0.201162000000000000E+06  0.202026671875000000E+06  0.202667296875000000E+06  0.203118218750000000E+06
 ETA=   14  0.191753515625000000E+06  0.191920968750000000E+06  0.192423578125000000E+06  0.193228828125000000E+06  0.194243546875000000E+06
            0.195374203125000000E+06  0.196556375000000000E+06  0.197809796875000000E+06  0.199091296875000000E+06  0.200379875000000000E+06
            0.201573312500000000E+06  0.202540515625000000E+06  0.203204218750000000E+06  0.203594609375000000E+06
 ETA=   15  0.190911593750000000E+06  0.190962156250000000E+06  0.191442000000000000E+06  0.192317156250000000E+06  0.193472906250000000E+06
            0.194791125000000000E+06  0.196186609375000000E+06  0.197683562500000000E+06  0.199218890625000000E+06  0.200749484375000000E+06
            0.202144234375000000E+06  0.203239671875000000E+06  0.203953656250000000E+06  0.204320125000000000E+06
 ETA=   16  0.189820890625000000E+06  0.189817890625000000E+06  0.190315718750000000E+06  0.191291000000000000E+06  0.192616312500000000E+06
            0.194154984375000000E+06  0.195801421875000000E+06  0.197584859375000000E+06  0.199414562500000000E+06  0.201218062500000000E+06
            0.202837718750000000E+06  0.204086453125000000E+06  0.204885093750000000E+06  0.205281093750000000E+06
 ETA=   17  0.188507140625000000E+06  0.188473781250000000E+06  0.189021328125000000E+06  0.190126343750000000E+06  0.191651296875000000E+06
            0.193446468750000000E+06  0.195386187500000000E+06  0.197505234375000000E+06  0.199678375000000000E+06  0.201795140625000000E+06
            0.203670859375000000E+06  0.205104375000000000E+06  0.206018906250000000E+06  0.206476265625000000E+06
 ETA=   18  0.186966281250000000E+06  0.186912484375000000E+06  0.187529593750000000E+06  0.188792406250000000E+06  0.190552578125000000E+06
            0.192647812500000000E+06  0.194929218750000000E+06  0.197437218750000000E+06  0.200009625000000000E+06  0.202494250000000000E+06
            0.204674828125000000E+06  0.206340421875000000E+06  0.207409296875000000E+06  0.207948937500000000E+06
 ETA=   19  0.185165078125000000E+06  0.185107703125000000E+06  0.185824046875000000E+06  0.187281640625000000E+06  0.189319031250000000E+06
            0.191759843750000000E+06  0.194428843750000000E+06  0.197373468750000000E+06  0.200397750000000000E+06  0.203311140625000000E+06
            0.205861640625000000E+06  0.207828296875000000E+06  0.209116234375000000E+06  0.209780093750000000E+06
 ETA=   20  0.183128312500000000E+06  0.183113375000000000E+06  0.183972421875000000E+06  0.185658359375000000E+06  0.188002125000000000E+06
            0.190817562500000000E+06  0.193903171875000000E+06  0.197308500000000000E+06  0.200811781250000000E+06  0.204193203125000000E+06
            0.207166859375000000E+06  0.209500500000000000E+06  0.211093312500000000E+06  0.211977687500000000E+06
 ETA=   21  0.180919218750000000E+06  0.181045687500000000E+06  0.182086640625000000E+06  0.184012656250000000E+06  0.186666031250000000E+06
            0.189865531250000000E+06  0.193375359375000000E+06  0.197241578125000000E+06  0.201220640625000000E+06  0.205072390625000000E+06
            0.208479578125000000E+06  0.211188890625000000E+06  0.213123125000000000E+06  0.214422390625000000E+06
 ETA=    1  0.000000000000000000E+00  0.000000000000000000E+00  0.000000000000000000E+00  0.000000000000000000E+00  0.000000000000000000E+00
            0.000000000000000000E+00  0.000000000000000000E+00  0.000000000000000000E+00  0.000000000000000000E+00  0.000000000000000000E+00
            0.000000000000000000E+00  0.603732062500000000E+06  0.607226062500000000E+06  0.610751250000000000E+06
 ETA=    2  0.000000000000000000E+00  0.000000000000000000E+00  0.000000000000000000E+00  0.000000000000000000E+00  0.000000000000000000E+00
            0.000000000000000000E+00  0.000000000000000000E+00  0.000000000000000000E+00  0.000000000000000000E+00  0.000000000000000000E+00
            0.601424062500000000E+06  0.604444750000000000E+06  0.607475687500000000E+06  0.610362500000000000E+06
 ETA=    3  0.606607937500000000E+06  0.603789437500000000E+06  0.601197562500000000E+06  0.599101500000000000E+06  0.000000000000000000E+00
            0.000000000000000000E+00  0.000000000000000000E+00  0.000000000000000000E+00  0.000000000000000000E+00  0.000000000000000000E+00
            0.602513687500000000E+06  0.605100312500000000E+06  0.607640687500000000E+06  0.610012937500000000E+06
 ETA=    4  0.606886000000000000E+06  0.604532125000000000E+06  0.602365750000000000E+06  0.600601375000000000E+06  0.599355625000000000E+06
            0.000000000000000000E+00  0.000000000000000000E+00  0.000000000000000000E+00  0.000000000000000000E+00  0.601492750000000000E+06
            0.603480062500000000E+06  0.605663562500000000E+06  0.607765687500000000E+06  0.609724125000000000E+06
 ETA=    5  0.607125062500000000E+06  0.605185750000000000E+06  0.603404625000000000E+06  0.601955187500000000E+06  0.600941312500000000E+06
            0.600407000000000000E+06  0.600307750000000000E+06  0.600650687500000000E+06  0.601451125000000000E+06  0.602704375000000000E+06
            0.604362500000000000E+06  0.606162437500000000E+06  0.607885375000000000E+06  0.609492375000000000E+06
 ETA=    6  0.607331437500000000E+06  0.605773187500000000E+06  0.604348500000000000E+06  0.603192062500000000E+06  0.602398375000000000E+06
            0.601989625000000000E+06  0.601928875000000000E+06  0.602213500000000000E+06  0.602853375000000000E+06  0.603855937500000000E+06
            0.605182750000000000E+06  0.606635562500000000E+06  0.608020187500000000E+06  0.609303625000000000E+06
 ETA=    7  0.607504312500000000E+06  0.606313937500000000E+06  0.605233937500000000E+06  0.604361750000000000E+06  0.603775562500000000E+06
            0.603485125000000000E+06  0.603459312500000000E+06  0.603691125000000000E+06  0.604188000000000000E+06  0.604963937500000000E+06
            0.605990375000000000E+06  0.607121812500000000E+06  0.608191000000000000E+06  0.609151125000000000E+06
 ETA=    8  0.607638250000000000E+06  0.606854250000000000E+06  0.606121375000000000E+06  0.605530937500000000E+06  0.605144437500000000E+06
            0.604966562500000000E+06  0.604974812500000000E+06  0.605163187500000000E+06  0.605536250000000000E+06  0.606107125000000000E+06
            0.606855375000000000E+06  0.607680750000000000E+06  0.608452500000000000E+06  0.609110687500000000E+06
 ETA=    9  0.607891937500000000E+06  0.607451062500000000E+06  0.607038437500000000E+06  0.606715625000000000E+06  0.606520375000000000E+06
            0.606454000000000000E+06  0.606502062500000000E+06  0.606660750000000000E+06  0.606931375000000000E+06  0.607324187500000000E+06
            0.607825625000000000E+06  0.608374187500000000E+06  0.608888125000000000E+06  0.609333562500000000E+06
 ETA=   10  0.608301062500000000E+06  0.608137875000000000E+06  0.608001312500000000E+06  0.607916687500000000E+06  0.607897562500000000E+06
            0.607940187500000000E+06  0.608034750000000000E+06  0.608180562500000000E+06  0.608375625000000000E+06  0.608625937500000000E+06
            0.608922875000000000E+06  0.609235000000000000E+06  0.609524187500000000E+06  0.609777062500000000E+06
 ETA=   11  0.608792000000000000E+06  0.608870625000000000E+06  0.608968937500000000E+06  0.609088625000000000E+06  0.609223250000000000E+06
            0.609363937500000000E+06  0.609504812500000000E+06  0.609648375000000000E+06  0.609791000000000000E+06  0.609933562500000000E+06
            0.610069125000000000E+06  0.610187125000000000E+06  0.610281187500000000E+06  0.610354187500000000E+06
 ETA=   12  0.609245562500000000E+06  0.609559625000000000E+06  0.609891500000000000E+06  0.610220812500000000E+06  0.610518625000000000E+06
            0.610768750000000000E+06  0.610968062500000000E+06  0.611122437500000000E+06  0.611225562500000000E+06  0.611272312500000000E+06
            0.611256375000000000E+06  0.611185500000000000E+06  0.611084875000000000E+06  0.610973312500000000E+06
 ETA=   13  0.609549125000000000E+06  0.610115937500000000E+06  0.610719125000000000E+06  0.611301687500000000E+06  0.611802687500000000E+06
            0.612196187500000000E+06  0.612478937500000000E+06  0.612659312500000000E+06  0.612725375000000000E+06  0.612664750000000000E+06
            0.612472062500000000E+06  0.612179250000000000E+06  0.611852875000000000E+06  0.611531375000000000E+06
 ETA=   14  0.609621000000000000E+06  0.610494750000000000E+06  0.611414500000000000E+06  0.612291750000000000E+06  0.613029437500000000E+06
            0.613589750000000000E+06  0.613970062500000000E+06  0.614182187500000000E+06  0.614205062500000000E+06  0.614019000000000000E+06
            0.613621625000000000E+06  0.613073625000000000E+06  0.612485250000000000E+06  0.611920125000000000E+06
 ETA=   15  0.609483500000000000E+06  0.610740875000000000E+06  0.612017125000000000E+06  0.613215312500000000E+06  0.614210062500000000E+06
            0.614951875000000000E+06  0.615437875000000000E+06  0.615683312500000000E+06  0.615656312500000000E+06  0.615331062500000000E+06
            0.614711750000000000E+06  0.613888812500000000E+06  0.613004937500000000E+06  0.612114875000000000E+06
 ETA=   16  0.609311750000000000E+06  0.610925375000000000E+06  0.612572625000000000E+06  0.614105937500000000E+06  0.615375687500000000E+06
            0.616316687500000000E+06  0.616920312500000000E+06  0.617201687500000000E+06  0.617116000000000000E+06  0.616636812500000000E+06
            0.615782687500000000E+06  0.614677187500000000E+06  0.613487687500000000E+06  0.612266437500000000E+06
 ETA=   17  0.609103500000000000E+06  0.611091625000000000E+06  0.613134812500000000E+06  0.615024250000000000E+06  0.616590062500000000E+06
            0.617751875000000000E+06  0.618489625000000000E+06  0.618814812500000000E+06  0.618665875000000000E+06  0.618018750000000000E+06
            0.616915250000000000E+06  0.615511250000000000E+06  0.614000187500000000E+06  0.612455812500000000E+06
 ETA=   18  0.608859562500000000E+06  0.611259062500000000E+06  0.613735562500000000E+06  0.616014875000000000E+06  0.617903812500000000E+06
            0.619308375000000000E+06  0.620195687500000000E+06  0.620574250000000000E+06  0.620364687500000000E+06  0.619544875000000000E+06
            0.618179187500000000E+06  0.616451375000000000E+06  0.614583375000000000E+06  0.612689062500000000E+06
 ETA=   19  0.608574187500000000E+06  0.611439750000000000E+06  0.614393125000000000E+06  0.617097750000000000E+06  0.619335687500000000E+06
            0.621000750000000000E+06  0.622051812500000000E+06  0.622495562500000000E+06  0.622237250000000000E+06  0.621252437500000000E+06
            0.619621562500000000E+06  0.617547312500000000E+06  0.615277562500000000E+06  0.612979125000000000E+06
 ETA=   20  0.608251687500000000E+06  0.611648562500000000E+06  0.615100000000000000E+06  0.618243625000000000E+06  0.620843500000000000E+06
            0.622776312500000000E+06  0.623998562500000000E+06  0.624514125000000000E+06  0.624220062500000000E+06  0.623090687500000000E+06
            0.621210312500000000E+06  0.618793312500000000E+06  0.616102937500000000E+06  0.613327062500000000E+06
 ETA=   21  0.607901750000000000E+06  0.611907000000000000E+06  0.615833562500000000E+06  0.619399312500000000E+06  0.622361750000000000E+06
            0.624559250000000000E+06  0.625953000000000000E+06  0.626539187500000000E+06  0.626215812500000000E+06  0.624958750000000000E+06
            0.622843312500000000E+06  0.620106062500000000E+06  0.617034500000000000E+06  0.613714437500000000E+06
